
---------- Begin Simulation Statistics ----------
final_tick                                 4385661000                       # Number of ticks from beginning of simulation (restored from checkpoints and never reset)
host_inst_rate                                  41119                       # Simulator instruction rate (inst/s)
host_mem_usage                                4968536                       # Number of bytes of host memory used
host_op_rate                                    74746                       # Simulator op (including micro ops) rate (op/s)
host_seconds                                    23.94                       # Real time elapsed on the host
host_tick_rate                              183207226                       # Simulator tick rate (ticks/s)
sim_freq                                 1000000000000                       # Frequency of simulated ticks
sim_insts                                      984301                       # Number of instructions simulated
sim_ops                                       1789296                       # Number of ops (including micro ops) simulated
sim_seconds                                  0.004386                       # Number of seconds simulated
sim_ticks                                  4385661000                       # Number of ticks simulated
system.cpu00.Branches                          134739                       # Number of branches fetched
system.cpu00.committedInsts                    984301                       # Number of instructions committed
system.cpu00.committedOps                     1789296                       # Number of ops (including micro ops) committed
system.cpu00.dtb.rdAccesses                    250436                       # TLB accesses on read requests
system.cpu00.dtb.rdMisses                         286                       # TLB misses on read requests
system.cpu00.dtb.wrAccesses                    110078                       # TLB accesses on write requests
system.cpu00.dtb.wrMisses                          74                       # TLB misses on write requests
system.cpu00.idle_fraction                   0.000000                       # Percentage of idle cycles
system.cpu00.itb.rdAccesses                         0                       # TLB accesses on read requests
system.cpu00.itb.rdMisses                           0                       # TLB misses on read requests
system.cpu00.itb.wrAccesses                   1370785                       # TLB accesses on write requests
system.cpu00.itb.wrMisses                         314                       # TLB misses on write requests
system.cpu00.not_idle_fraction               1.000000                       # Percentage of non-idle cycles
system.cpu00.numCycles                        8771322                       # number of cpu cycles simulated
system.cpu00.numWorkItemsCompleted                  0                       # number of work items this cpu completed
system.cpu00.numWorkItemsStarted                    0                       # number of work items this cpu started
system.cpu00.num_busy_cycles             8771321.998000                       # Number of busy cycles
system.cpu00.num_cc_register_reads             751645                       # number of times the CC registers were read
system.cpu00.num_cc_register_writes            565669                       # number of times the CC registers were written
system.cpu00.num_conditional_control_insts       105060                       # number of instructions that are conditional controls
system.cpu00.num_fp_alu_accesses               507328                       # Number of float alu accesses
system.cpu00.num_fp_insts                      507328                       # number of float instructions
system.cpu00.num_fp_register_reads             798441                       # number of times the floating registers were read
system.cpu00.num_fp_register_writes            445736                       # number of times the floating registers were written
system.cpu00.num_func_calls                     18899                       # number of times a function call or return occured
system.cpu00.num_idle_cycles                 0.002000                       # Number of idle cycles
system.cpu00.num_int_alu_accesses             1449206                       # Number of integer alu accesses
system.cpu00.num_int_insts                    1449206                       # number of integer instructions
system.cpu00.num_int_register_reads           2871661                       # number of times the integer registers were read
system.cpu00.num_int_register_writes          1099822                       # number of times the integer registers were written
system.cpu00.num_load_insts                    250404                       # Number of load instructions
system.cpu00.num_mem_refs                      360459                       # number of memory refs
system.cpu00.num_store_insts                   110055                       # Number of store instructions
system.cpu00.num_vec_alu_accesses                   0                       # Number of vector alu accesses
system.cpu00.num_vec_insts                          0                       # number of vector instructions
system.cpu00.num_vec_register_reads                 0                       # number of times the vector registers were read
system.cpu00.num_vec_register_writes                0                       # number of times the vector registers were written
system.cpu00.op_class::No_OpClass                8083      0.45%      0.45% # Class of executed instruction
system.cpu00.op_class::IntAlu                 1189490     66.47%     66.93% # Class of executed instruction
system.cpu00.op_class::IntMult                   2263      0.13%     67.05% # Class of executed instruction
system.cpu00.op_class::IntDiv                    4619      0.26%     67.31% # Class of executed instruction
system.cpu00.op_class::FloatAdd                 31578      1.76%     69.07% # Class of executed instruction
system.cpu00.op_class::FloatCmp                     0      0.00%     69.07% # Class of executed instruction
system.cpu00.op_class::FloatCvt                    96      0.01%     69.08% # Class of executed instruction
system.cpu00.op_class::FloatMult                    0      0.00%     69.08% # Class of executed instruction
system.cpu00.op_class::FloatMultAcc                 0      0.00%     69.08% # Class of executed instruction
system.cpu00.op_class::FloatDiv                     0      0.00%     69.08% # Class of executed instruction
system.cpu00.op_class::FloatMisc                    0      0.00%     69.08% # Class of executed instruction
system.cpu00.op_class::FloatSqrt                    0      0.00%     69.08% # Class of executed instruction
system.cpu00.op_class::SimdAdd                   1982      0.11%     69.19% # Class of executed instruction
system.cpu00.op_class::SimdAddAcc                   0      0.00%     69.19% # Class of executed instruction
system.cpu00.op_class::SimdAlu                  27896      1.56%     70.75% # Class of executed instruction
system.cpu00.op_class::SimdCmp                      0      0.00%     70.75% # Class of executed instruction
system.cpu00.op_class::SimdCvt                   3876      0.22%     70.97% # Class of executed instruction
system.cpu00.op_class::SimdMisc                 19284      1.08%     72.04% # Class of executed instruction
system.cpu00.op_class::SimdMult                     0      0.00%     72.04% # Class of executed instruction
system.cpu00.op_class::SimdMultAcc                  0      0.00%     72.04% # Class of executed instruction
system.cpu00.op_class::SimdShift                  646      0.04%     72.08% # Class of executed instruction
system.cpu00.op_class::SimdShiftAcc                 0      0.00%     72.08% # Class of executed instruction
system.cpu00.op_class::SimdDiv                      0      0.00%     72.08% # Class of executed instruction
system.cpu00.op_class::SimdSqrt                     0      0.00%     72.08% # Class of executed instruction
system.cpu00.op_class::SimdFloatAdd             81603      4.56%     76.64% # Class of executed instruction
system.cpu00.op_class::SimdFloatAlu                 0      0.00%     76.64% # Class of executed instruction
system.cpu00.op_class::SimdFloatCmp                 0      0.00%     76.64% # Class of executed instruction
system.cpu00.op_class::SimdFloatCvt              5567      0.31%     76.95% # Class of executed instruction
system.cpu00.op_class::SimdFloatDiv              1058      0.06%     77.01% # Class of executed instruction
system.cpu00.op_class::SimdFloatMisc                0      0.00%     77.01% # Class of executed instruction
system.cpu00.op_class::SimdFloatMult            50915      2.85%     79.86% # Class of executed instruction
system.cpu00.op_class::SimdFloatMultAcc             0      0.00%     79.86% # Class of executed instruction
system.cpu00.op_class::SimdFloatSqrt                0      0.00%     79.86% # Class of executed instruction
system.cpu00.op_class::SimdReduceAdd                0      0.00%     79.86% # Class of executed instruction
system.cpu00.op_class::SimdReduceAlu                0      0.00%     79.86% # Class of executed instruction
system.cpu00.op_class::SimdReduceCmp                0      0.00%     79.86% # Class of executed instruction
system.cpu00.op_class::SimdFloatReduceAdd            0      0.00%     79.86% # Class of executed instruction
system.cpu00.op_class::SimdFloatReduceCmp            0      0.00%     79.86% # Class of executed instruction
system.cpu00.op_class::SimdAes                      0      0.00%     79.86% # Class of executed instruction
system.cpu00.op_class::SimdAesMix                   0      0.00%     79.86% # Class of executed instruction
system.cpu00.op_class::SimdSha1Hash                 0      0.00%     79.86% # Class of executed instruction
system.cpu00.op_class::SimdSha1Hash2                0      0.00%     79.86% # Class of executed instruction
system.cpu00.op_class::SimdSha256Hash               0      0.00%     79.86% # Class of executed instruction
system.cpu00.op_class::SimdSha256Hash2              0      0.00%     79.86% # Class of executed instruction
system.cpu00.op_class::SimdShaSigma2                0      0.00%     79.86% # Class of executed instruction
system.cpu00.op_class::SimdShaSigma3                0      0.00%     79.86% # Class of executed instruction
system.cpu00.op_class::SimdPredAlu                  0      0.00%     79.86% # Class of executed instruction
system.cpu00.op_class::MemRead                 133290      7.45%     87.30% # Class of executed instruction
system.cpu00.op_class::MemWrite                 58290      3.26%     90.56% # Class of executed instruction
system.cpu00.op_class::FloatMemRead            117114      6.54%     97.11% # Class of executed instruction
system.cpu00.op_class::FloatMemWrite            51765      2.89%    100.00% # Class of executed instruction
system.cpu00.op_class::IprAccess                    0      0.00%    100.00% # Class of executed instruction
system.cpu00.op_class::InstPrefetch                 0      0.00%    100.00% # Class of executed instruction
system.cpu00.op_class::total                  1789415                       # Class of executed instruction
system.cpu00.workload.numSyscalls                  96                       # Number of system calls
system.cpu01.committedInsts                         0                       # Number of instructions committed
system.cpu01.committedOps                           0                       # Number of ops (including micro ops) committed
system.cpu01.dtb.rdAccesses                         0                       # TLB accesses on read requests
system.cpu01.dtb.rdMisses                           0                       # TLB misses on read requests
system.cpu01.dtb.wrAccesses                         0                       # TLB accesses on write requests
system.cpu01.dtb.wrMisses                           0                       # TLB misses on write requests
system.cpu01.idle_fraction                          1                       # Percentage of idle cycles
system.cpu01.itb.rdAccesses                         0                       # TLB accesses on read requests
system.cpu01.itb.rdMisses                           0                       # TLB misses on read requests
system.cpu01.itb.wrAccesses                         0                       # TLB accesses on write requests
system.cpu01.itb.wrMisses                           0                       # TLB misses on write requests
system.cpu01.not_idle_fraction                      0                       # Percentage of non-idle cycles
system.cpu01.numCycles                              0                       # number of cpu cycles simulated
system.cpu01.numWorkItemsCompleted                  0                       # number of work items this cpu completed
system.cpu01.numWorkItemsStarted                    0                       # number of work items this cpu started
system.cpu01.num_busy_cycles                        0                       # Number of busy cycles
system.cpu01.num_conditional_control_insts            0                       # number of instructions that are conditional controls
system.cpu01.num_fp_alu_accesses                    0                       # Number of float alu accesses
system.cpu01.num_fp_insts                           0                       # number of float instructions
system.cpu01.num_fp_register_reads                  0                       # number of times the floating registers were read
system.cpu01.num_fp_register_writes                 0                       # number of times the floating registers were written
system.cpu01.num_func_calls                         0                       # number of times a function call or return occured
system.cpu01.num_idle_cycles                        0                       # Number of idle cycles
system.cpu01.num_int_alu_accesses                   0                       # Number of integer alu accesses
system.cpu01.num_int_insts                          0                       # number of integer instructions
system.cpu01.num_int_register_reads                 0                       # number of times the integer registers were read
system.cpu01.num_int_register_writes                0                       # number of times the integer registers were written
system.cpu01.num_load_insts                         0                       # Number of load instructions
system.cpu01.num_mem_refs                           0                       # number of memory refs
system.cpu01.num_store_insts                        0                       # Number of store instructions
system.cpu01.num_vec_alu_accesses                   0                       # Number of vector alu accesses
system.cpu01.num_vec_insts                          0                       # number of vector instructions
system.cpu01.num_vec_register_reads                 0                       # number of times the vector registers were read
system.cpu01.num_vec_register_writes                0                       # number of times the vector registers were written
system.cpu01.op_class::No_OpClass                   0                       # Class of executed instruction
system.cpu01.op_class::IntAlu                       0                       # Class of executed instruction
system.cpu01.op_class::IntMult                      0                       # Class of executed instruction
system.cpu01.op_class::IntDiv                       0                       # Class of executed instruction
system.cpu01.op_class::FloatAdd                     0                       # Class of executed instruction
system.cpu01.op_class::FloatCmp                     0                       # Class of executed instruction
system.cpu01.op_class::FloatCvt                     0                       # Class of executed instruction
system.cpu01.op_class::FloatMult                    0                       # Class of executed instruction
system.cpu01.op_class::FloatMultAcc                 0                       # Class of executed instruction
system.cpu01.op_class::FloatDiv                     0                       # Class of executed instruction
system.cpu01.op_class::FloatMisc                    0                       # Class of executed instruction
system.cpu01.op_class::FloatSqrt                    0                       # Class of executed instruction
system.cpu01.op_class::SimdAdd                      0                       # Class of executed instruction
system.cpu01.op_class::SimdAddAcc                   0                       # Class of executed instruction
system.cpu01.op_class::SimdAlu                      0                       # Class of executed instruction
system.cpu01.op_class::SimdCmp                      0                       # Class of executed instruction
system.cpu01.op_class::SimdCvt                      0                       # Class of executed instruction
system.cpu01.op_class::SimdMisc                     0                       # Class of executed instruction
system.cpu01.op_class::SimdMult                     0                       # Class of executed instruction
system.cpu01.op_class::SimdMultAcc                  0                       # Class of executed instruction
system.cpu01.op_class::SimdShift                    0                       # Class of executed instruction
system.cpu01.op_class::SimdShiftAcc                 0                       # Class of executed instruction
system.cpu01.op_class::SimdDiv                      0                       # Class of executed instruction
system.cpu01.op_class::SimdSqrt                     0                       # Class of executed instruction
system.cpu01.op_class::SimdFloatAdd                 0                       # Class of executed instruction
system.cpu01.op_class::SimdFloatAlu                 0                       # Class of executed instruction
system.cpu01.op_class::SimdFloatCmp                 0                       # Class of executed instruction
system.cpu01.op_class::SimdFloatCvt                 0                       # Class of executed instruction
system.cpu01.op_class::SimdFloatDiv                 0                       # Class of executed instruction
system.cpu01.op_class::SimdFloatMisc                0                       # Class of executed instruction
system.cpu01.op_class::SimdFloatMult                0                       # Class of executed instruction
system.cpu01.op_class::SimdFloatMultAcc             0                       # Class of executed instruction
system.cpu01.op_class::SimdFloatSqrt                0                       # Class of executed instruction
system.cpu01.op_class::SimdReduceAdd                0                       # Class of executed instruction
system.cpu01.op_class::SimdReduceAlu                0                       # Class of executed instruction
system.cpu01.op_class::SimdReduceCmp                0                       # Class of executed instruction
system.cpu01.op_class::SimdFloatReduceAdd            0                       # Class of executed instruction
system.cpu01.op_class::SimdFloatReduceCmp            0                       # Class of executed instruction
system.cpu01.op_class::SimdAes                      0                       # Class of executed instruction
system.cpu01.op_class::SimdAesMix                   0                       # Class of executed instruction
system.cpu01.op_class::SimdSha1Hash                 0                       # Class of executed instruction
system.cpu01.op_class::SimdSha1Hash2                0                       # Class of executed instruction
system.cpu01.op_class::SimdSha256Hash               0                       # Class of executed instruction
system.cpu01.op_class::SimdSha256Hash2              0                       # Class of executed instruction
system.cpu01.op_class::SimdShaSigma2                0                       # Class of executed instruction
system.cpu01.op_class::SimdShaSigma3                0                       # Class of executed instruction
system.cpu01.op_class::SimdPredAlu                  0                       # Class of executed instruction
system.cpu01.op_class::MemRead                      0                       # Class of executed instruction
system.cpu01.op_class::MemWrite                     0                       # Class of executed instruction
system.cpu01.op_class::FloatMemRead                 0                       # Class of executed instruction
system.cpu01.op_class::FloatMemWrite                0                       # Class of executed instruction
system.cpu01.op_class::IprAccess                    0                       # Class of executed instruction
system.cpu01.op_class::InstPrefetch                 0                       # Class of executed instruction
system.cpu01.op_class::total                        0                       # Class of executed instruction
system.cpu02.committedInsts                         0                       # Number of instructions committed
system.cpu02.committedOps                           0                       # Number of ops (including micro ops) committed
system.cpu02.dtb.rdAccesses                         0                       # TLB accesses on read requests
system.cpu02.dtb.rdMisses                           0                       # TLB misses on read requests
system.cpu02.dtb.wrAccesses                         0                       # TLB accesses on write requests
system.cpu02.dtb.wrMisses                           0                       # TLB misses on write requests
system.cpu02.idle_fraction                          1                       # Percentage of idle cycles
system.cpu02.itb.rdAccesses                         0                       # TLB accesses on read requests
system.cpu02.itb.rdMisses                           0                       # TLB misses on read requests
system.cpu02.itb.wrAccesses                         0                       # TLB accesses on write requests
system.cpu02.itb.wrMisses                           0                       # TLB misses on write requests
system.cpu02.not_idle_fraction                      0                       # Percentage of non-idle cycles
system.cpu02.numCycles                              0                       # number of cpu cycles simulated
system.cpu02.numWorkItemsCompleted                  0                       # number of work items this cpu completed
system.cpu02.numWorkItemsStarted                    0                       # number of work items this cpu started
system.cpu02.num_busy_cycles                        0                       # Number of busy cycles
system.cpu02.num_conditional_control_insts            0                       # number of instructions that are conditional controls
system.cpu02.num_fp_alu_accesses                    0                       # Number of float alu accesses
system.cpu02.num_fp_insts                           0                       # number of float instructions
system.cpu02.num_fp_register_reads                  0                       # number of times the floating registers were read
system.cpu02.num_fp_register_writes                 0                       # number of times the floating registers were written
system.cpu02.num_func_calls                         0                       # number of times a function call or return occured
system.cpu02.num_idle_cycles                        0                       # Number of idle cycles
system.cpu02.num_int_alu_accesses                   0                       # Number of integer alu accesses
system.cpu02.num_int_insts                          0                       # number of integer instructions
system.cpu02.num_int_register_reads                 0                       # number of times the integer registers were read
system.cpu02.num_int_register_writes                0                       # number of times the integer registers were written
system.cpu02.num_load_insts                         0                       # Number of load instructions
system.cpu02.num_mem_refs                           0                       # number of memory refs
system.cpu02.num_store_insts                        0                       # Number of store instructions
system.cpu02.num_vec_alu_accesses                   0                       # Number of vector alu accesses
system.cpu02.num_vec_insts                          0                       # number of vector instructions
system.cpu02.num_vec_register_reads                 0                       # number of times the vector registers were read
system.cpu02.num_vec_register_writes                0                       # number of times the vector registers were written
system.cpu02.op_class::No_OpClass                   0                       # Class of executed instruction
system.cpu02.op_class::IntAlu                       0                       # Class of executed instruction
system.cpu02.op_class::IntMult                      0                       # Class of executed instruction
system.cpu02.op_class::IntDiv                       0                       # Class of executed instruction
system.cpu02.op_class::FloatAdd                     0                       # Class of executed instruction
system.cpu02.op_class::FloatCmp                     0                       # Class of executed instruction
system.cpu02.op_class::FloatCvt                     0                       # Class of executed instruction
system.cpu02.op_class::FloatMult                    0                       # Class of executed instruction
system.cpu02.op_class::FloatMultAcc                 0                       # Class of executed instruction
system.cpu02.op_class::FloatDiv                     0                       # Class of executed instruction
system.cpu02.op_class::FloatMisc                    0                       # Class of executed instruction
system.cpu02.op_class::FloatSqrt                    0                       # Class of executed instruction
system.cpu02.op_class::SimdAdd                      0                       # Class of executed instruction
system.cpu02.op_class::SimdAddAcc                   0                       # Class of executed instruction
system.cpu02.op_class::SimdAlu                      0                       # Class of executed instruction
system.cpu02.op_class::SimdCmp                      0                       # Class of executed instruction
system.cpu02.op_class::SimdCvt                      0                       # Class of executed instruction
system.cpu02.op_class::SimdMisc                     0                       # Class of executed instruction
system.cpu02.op_class::SimdMult                     0                       # Class of executed instruction
system.cpu02.op_class::SimdMultAcc                  0                       # Class of executed instruction
system.cpu02.op_class::SimdShift                    0                       # Class of executed instruction
system.cpu02.op_class::SimdShiftAcc                 0                       # Class of executed instruction
system.cpu02.op_class::SimdDiv                      0                       # Class of executed instruction
system.cpu02.op_class::SimdSqrt                     0                       # Class of executed instruction
system.cpu02.op_class::SimdFloatAdd                 0                       # Class of executed instruction
system.cpu02.op_class::SimdFloatAlu                 0                       # Class of executed instruction
system.cpu02.op_class::SimdFloatCmp                 0                       # Class of executed instruction
system.cpu02.op_class::SimdFloatCvt                 0                       # Class of executed instruction
system.cpu02.op_class::SimdFloatDiv                 0                       # Class of executed instruction
system.cpu02.op_class::SimdFloatMisc                0                       # Class of executed instruction
system.cpu02.op_class::SimdFloatMult                0                       # Class of executed instruction
system.cpu02.op_class::SimdFloatMultAcc             0                       # Class of executed instruction
system.cpu02.op_class::SimdFloatSqrt                0                       # Class of executed instruction
system.cpu02.op_class::SimdReduceAdd                0                       # Class of executed instruction
system.cpu02.op_class::SimdReduceAlu                0                       # Class of executed instruction
system.cpu02.op_class::SimdReduceCmp                0                       # Class of executed instruction
system.cpu02.op_class::SimdFloatReduceAdd            0                       # Class of executed instruction
system.cpu02.op_class::SimdFloatReduceCmp            0                       # Class of executed instruction
system.cpu02.op_class::SimdAes                      0                       # Class of executed instruction
system.cpu02.op_class::SimdAesMix                   0                       # Class of executed instruction
system.cpu02.op_class::SimdSha1Hash                 0                       # Class of executed instruction
system.cpu02.op_class::SimdSha1Hash2                0                       # Class of executed instruction
system.cpu02.op_class::SimdSha256Hash               0                       # Class of executed instruction
system.cpu02.op_class::SimdSha256Hash2              0                       # Class of executed instruction
system.cpu02.op_class::SimdShaSigma2                0                       # Class of executed instruction
system.cpu02.op_class::SimdShaSigma3                0                       # Class of executed instruction
system.cpu02.op_class::SimdPredAlu                  0                       # Class of executed instruction
system.cpu02.op_class::MemRead                      0                       # Class of executed instruction
system.cpu02.op_class::MemWrite                     0                       # Class of executed instruction
system.cpu02.op_class::FloatMemRead                 0                       # Class of executed instruction
system.cpu02.op_class::FloatMemWrite                0                       # Class of executed instruction
system.cpu02.op_class::IprAccess                    0                       # Class of executed instruction
system.cpu02.op_class::InstPrefetch                 0                       # Class of executed instruction
system.cpu02.op_class::total                        0                       # Class of executed instruction
system.cpu03.committedInsts                         0                       # Number of instructions committed
system.cpu03.committedOps                           0                       # Number of ops (including micro ops) committed
system.cpu03.dtb.rdAccesses                         0                       # TLB accesses on read requests
system.cpu03.dtb.rdMisses                           0                       # TLB misses on read requests
system.cpu03.dtb.wrAccesses                         0                       # TLB accesses on write requests
system.cpu03.dtb.wrMisses                           0                       # TLB misses on write requests
system.cpu03.idle_fraction                          1                       # Percentage of idle cycles
system.cpu03.itb.rdAccesses                         0                       # TLB accesses on read requests
system.cpu03.itb.rdMisses                           0                       # TLB misses on read requests
system.cpu03.itb.wrAccesses                         0                       # TLB accesses on write requests
system.cpu03.itb.wrMisses                           0                       # TLB misses on write requests
system.cpu03.not_idle_fraction                      0                       # Percentage of non-idle cycles
system.cpu03.numCycles                              0                       # number of cpu cycles simulated
system.cpu03.numWorkItemsCompleted                  0                       # number of work items this cpu completed
system.cpu03.numWorkItemsStarted                    0                       # number of work items this cpu started
system.cpu03.num_busy_cycles                        0                       # Number of busy cycles
system.cpu03.num_conditional_control_insts            0                       # number of instructions that are conditional controls
system.cpu03.num_fp_alu_accesses                    0                       # Number of float alu accesses
system.cpu03.num_fp_insts                           0                       # number of float instructions
system.cpu03.num_fp_register_reads                  0                       # number of times the floating registers were read
system.cpu03.num_fp_register_writes                 0                       # number of times the floating registers were written
system.cpu03.num_func_calls                         0                       # number of times a function call or return occured
system.cpu03.num_idle_cycles                        0                       # Number of idle cycles
system.cpu03.num_int_alu_accesses                   0                       # Number of integer alu accesses
system.cpu03.num_int_insts                          0                       # number of integer instructions
system.cpu03.num_int_register_reads                 0                       # number of times the integer registers were read
system.cpu03.num_int_register_writes                0                       # number of times the integer registers were written
system.cpu03.num_load_insts                         0                       # Number of load instructions
system.cpu03.num_mem_refs                           0                       # number of memory refs
system.cpu03.num_store_insts                        0                       # Number of store instructions
system.cpu03.num_vec_alu_accesses                   0                       # Number of vector alu accesses
system.cpu03.num_vec_insts                          0                       # number of vector instructions
system.cpu03.num_vec_register_reads                 0                       # number of times the vector registers were read
system.cpu03.num_vec_register_writes                0                       # number of times the vector registers were written
system.cpu03.op_class::No_OpClass                   0                       # Class of executed instruction
system.cpu03.op_class::IntAlu                       0                       # Class of executed instruction
system.cpu03.op_class::IntMult                      0                       # Class of executed instruction
system.cpu03.op_class::IntDiv                       0                       # Class of executed instruction
system.cpu03.op_class::FloatAdd                     0                       # Class of executed instruction
system.cpu03.op_class::FloatCmp                     0                       # Class of executed instruction
system.cpu03.op_class::FloatCvt                     0                       # Class of executed instruction
system.cpu03.op_class::FloatMult                    0                       # Class of executed instruction
system.cpu03.op_class::FloatMultAcc                 0                       # Class of executed instruction
system.cpu03.op_class::FloatDiv                     0                       # Class of executed instruction
system.cpu03.op_class::FloatMisc                    0                       # Class of executed instruction
system.cpu03.op_class::FloatSqrt                    0                       # Class of executed instruction
system.cpu03.op_class::SimdAdd                      0                       # Class of executed instruction
system.cpu03.op_class::SimdAddAcc                   0                       # Class of executed instruction
system.cpu03.op_class::SimdAlu                      0                       # Class of executed instruction
system.cpu03.op_class::SimdCmp                      0                       # Class of executed instruction
system.cpu03.op_class::SimdCvt                      0                       # Class of executed instruction
system.cpu03.op_class::SimdMisc                     0                       # Class of executed instruction
system.cpu03.op_class::SimdMult                     0                       # Class of executed instruction
system.cpu03.op_class::SimdMultAcc                  0                       # Class of executed instruction
system.cpu03.op_class::SimdShift                    0                       # Class of executed instruction
system.cpu03.op_class::SimdShiftAcc                 0                       # Class of executed instruction
system.cpu03.op_class::SimdDiv                      0                       # Class of executed instruction
system.cpu03.op_class::SimdSqrt                     0                       # Class of executed instruction
system.cpu03.op_class::SimdFloatAdd                 0                       # Class of executed instruction
system.cpu03.op_class::SimdFloatAlu                 0                       # Class of executed instruction
system.cpu03.op_class::SimdFloatCmp                 0                       # Class of executed instruction
system.cpu03.op_class::SimdFloatCvt                 0                       # Class of executed instruction
system.cpu03.op_class::SimdFloatDiv                 0                       # Class of executed instruction
system.cpu03.op_class::SimdFloatMisc                0                       # Class of executed instruction
system.cpu03.op_class::SimdFloatMult                0                       # Class of executed instruction
system.cpu03.op_class::SimdFloatMultAcc             0                       # Class of executed instruction
system.cpu03.op_class::SimdFloatSqrt                0                       # Class of executed instruction
system.cpu03.op_class::SimdReduceAdd                0                       # Class of executed instruction
system.cpu03.op_class::SimdReduceAlu                0                       # Class of executed instruction
system.cpu03.op_class::SimdReduceCmp                0                       # Class of executed instruction
system.cpu03.op_class::SimdFloatReduceAdd            0                       # Class of executed instruction
system.cpu03.op_class::SimdFloatReduceCmp            0                       # Class of executed instruction
system.cpu03.op_class::SimdAes                      0                       # Class of executed instruction
system.cpu03.op_class::SimdAesMix                   0                       # Class of executed instruction
system.cpu03.op_class::SimdSha1Hash                 0                       # Class of executed instruction
system.cpu03.op_class::SimdSha1Hash2                0                       # Class of executed instruction
system.cpu03.op_class::SimdSha256Hash               0                       # Class of executed instruction
system.cpu03.op_class::SimdSha256Hash2              0                       # Class of executed instruction
system.cpu03.op_class::SimdShaSigma2                0                       # Class of executed instruction
system.cpu03.op_class::SimdShaSigma3                0                       # Class of executed instruction
system.cpu03.op_class::SimdPredAlu                  0                       # Class of executed instruction
system.cpu03.op_class::MemRead                      0                       # Class of executed instruction
system.cpu03.op_class::MemWrite                     0                       # Class of executed instruction
system.cpu03.op_class::FloatMemRead                 0                       # Class of executed instruction
system.cpu03.op_class::FloatMemWrite                0                       # Class of executed instruction
system.cpu03.op_class::IprAccess                    0                       # Class of executed instruction
system.cpu03.op_class::InstPrefetch                 0                       # Class of executed instruction
system.cpu03.op_class::total                        0                       # Class of executed instruction
system.cpu04.committedInsts                         0                       # Number of instructions committed
system.cpu04.committedOps                           0                       # Number of ops (including micro ops) committed
system.cpu04.dtb.rdAccesses                         0                       # TLB accesses on read requests
system.cpu04.dtb.rdMisses                           0                       # TLB misses on read requests
system.cpu04.dtb.wrAccesses                         0                       # TLB accesses on write requests
system.cpu04.dtb.wrMisses                           0                       # TLB misses on write requests
system.cpu04.idle_fraction                          1                       # Percentage of idle cycles
system.cpu04.itb.rdAccesses                         0                       # TLB accesses on read requests
system.cpu04.itb.rdMisses                           0                       # TLB misses on read requests
system.cpu04.itb.wrAccesses                         0                       # TLB accesses on write requests
system.cpu04.itb.wrMisses                           0                       # TLB misses on write requests
system.cpu04.not_idle_fraction                      0                       # Percentage of non-idle cycles
system.cpu04.numCycles                              0                       # number of cpu cycles simulated
system.cpu04.numWorkItemsCompleted                  0                       # number of work items this cpu completed
system.cpu04.numWorkItemsStarted                    0                       # number of work items this cpu started
system.cpu04.num_busy_cycles                        0                       # Number of busy cycles
system.cpu04.num_conditional_control_insts            0                       # number of instructions that are conditional controls
system.cpu04.num_fp_alu_accesses                    0                       # Number of float alu accesses
system.cpu04.num_fp_insts                           0                       # number of float instructions
system.cpu04.num_fp_register_reads                  0                       # number of times the floating registers were read
system.cpu04.num_fp_register_writes                 0                       # number of times the floating registers were written
system.cpu04.num_func_calls                         0                       # number of times a function call or return occured
system.cpu04.num_idle_cycles                        0                       # Number of idle cycles
system.cpu04.num_int_alu_accesses                   0                       # Number of integer alu accesses
system.cpu04.num_int_insts                          0                       # number of integer instructions
system.cpu04.num_int_register_reads                 0                       # number of times the integer registers were read
system.cpu04.num_int_register_writes                0                       # number of times the integer registers were written
system.cpu04.num_load_insts                         0                       # Number of load instructions
system.cpu04.num_mem_refs                           0                       # number of memory refs
system.cpu04.num_store_insts                        0                       # Number of store instructions
system.cpu04.num_vec_alu_accesses                   0                       # Number of vector alu accesses
system.cpu04.num_vec_insts                          0                       # number of vector instructions
system.cpu04.num_vec_register_reads                 0                       # number of times the vector registers were read
system.cpu04.num_vec_register_writes                0                       # number of times the vector registers were written
system.cpu04.op_class::No_OpClass                   0                       # Class of executed instruction
system.cpu04.op_class::IntAlu                       0                       # Class of executed instruction
system.cpu04.op_class::IntMult                      0                       # Class of executed instruction
system.cpu04.op_class::IntDiv                       0                       # Class of executed instruction
system.cpu04.op_class::FloatAdd                     0                       # Class of executed instruction
system.cpu04.op_class::FloatCmp                     0                       # Class of executed instruction
system.cpu04.op_class::FloatCvt                     0                       # Class of executed instruction
system.cpu04.op_class::FloatMult                    0                       # Class of executed instruction
system.cpu04.op_class::FloatMultAcc                 0                       # Class of executed instruction
system.cpu04.op_class::FloatDiv                     0                       # Class of executed instruction
system.cpu04.op_class::FloatMisc                    0                       # Class of executed instruction
system.cpu04.op_class::FloatSqrt                    0                       # Class of executed instruction
system.cpu04.op_class::SimdAdd                      0                       # Class of executed instruction
system.cpu04.op_class::SimdAddAcc                   0                       # Class of executed instruction
system.cpu04.op_class::SimdAlu                      0                       # Class of executed instruction
system.cpu04.op_class::SimdCmp                      0                       # Class of executed instruction
system.cpu04.op_class::SimdCvt                      0                       # Class of executed instruction
system.cpu04.op_class::SimdMisc                     0                       # Class of executed instruction
system.cpu04.op_class::SimdMult                     0                       # Class of executed instruction
system.cpu04.op_class::SimdMultAcc                  0                       # Class of executed instruction
system.cpu04.op_class::SimdShift                    0                       # Class of executed instruction
system.cpu04.op_class::SimdShiftAcc                 0                       # Class of executed instruction
system.cpu04.op_class::SimdDiv                      0                       # Class of executed instruction
system.cpu04.op_class::SimdSqrt                     0                       # Class of executed instruction
system.cpu04.op_class::SimdFloatAdd                 0                       # Class of executed instruction
system.cpu04.op_class::SimdFloatAlu                 0                       # Class of executed instruction
system.cpu04.op_class::SimdFloatCmp                 0                       # Class of executed instruction
system.cpu04.op_class::SimdFloatCvt                 0                       # Class of executed instruction
system.cpu04.op_class::SimdFloatDiv                 0                       # Class of executed instruction
system.cpu04.op_class::SimdFloatMisc                0                       # Class of executed instruction
system.cpu04.op_class::SimdFloatMult                0                       # Class of executed instruction
system.cpu04.op_class::SimdFloatMultAcc             0                       # Class of executed instruction
system.cpu04.op_class::SimdFloatSqrt                0                       # Class of executed instruction
system.cpu04.op_class::SimdReduceAdd                0                       # Class of executed instruction
system.cpu04.op_class::SimdReduceAlu                0                       # Class of executed instruction
system.cpu04.op_class::SimdReduceCmp                0                       # Class of executed instruction
system.cpu04.op_class::SimdFloatReduceAdd            0                       # Class of executed instruction
system.cpu04.op_class::SimdFloatReduceCmp            0                       # Class of executed instruction
system.cpu04.op_class::SimdAes                      0                       # Class of executed instruction
system.cpu04.op_class::SimdAesMix                   0                       # Class of executed instruction
system.cpu04.op_class::SimdSha1Hash                 0                       # Class of executed instruction
system.cpu04.op_class::SimdSha1Hash2                0                       # Class of executed instruction
system.cpu04.op_class::SimdSha256Hash               0                       # Class of executed instruction
system.cpu04.op_class::SimdSha256Hash2              0                       # Class of executed instruction
system.cpu04.op_class::SimdShaSigma2                0                       # Class of executed instruction
system.cpu04.op_class::SimdShaSigma3                0                       # Class of executed instruction
system.cpu04.op_class::SimdPredAlu                  0                       # Class of executed instruction
system.cpu04.op_class::MemRead                      0                       # Class of executed instruction
system.cpu04.op_class::MemWrite                     0                       # Class of executed instruction
system.cpu04.op_class::FloatMemRead                 0                       # Class of executed instruction
system.cpu04.op_class::FloatMemWrite                0                       # Class of executed instruction
system.cpu04.op_class::IprAccess                    0                       # Class of executed instruction
system.cpu04.op_class::InstPrefetch                 0                       # Class of executed instruction
system.cpu04.op_class::total                        0                       # Class of executed instruction
system.cpu05.committedInsts                         0                       # Number of instructions committed
system.cpu05.committedOps                           0                       # Number of ops (including micro ops) committed
system.cpu05.dtb.rdAccesses                         0                       # TLB accesses on read requests
system.cpu05.dtb.rdMisses                           0                       # TLB misses on read requests
system.cpu05.dtb.wrAccesses                         0                       # TLB accesses on write requests
system.cpu05.dtb.wrMisses                           0                       # TLB misses on write requests
system.cpu05.idle_fraction                          1                       # Percentage of idle cycles
system.cpu05.itb.rdAccesses                         0                       # TLB accesses on read requests
system.cpu05.itb.rdMisses                           0                       # TLB misses on read requests
system.cpu05.itb.wrAccesses                         0                       # TLB accesses on write requests
system.cpu05.itb.wrMisses                           0                       # TLB misses on write requests
system.cpu05.not_idle_fraction                      0                       # Percentage of non-idle cycles
system.cpu05.numCycles                              0                       # number of cpu cycles simulated
system.cpu05.numWorkItemsCompleted                  0                       # number of work items this cpu completed
system.cpu05.numWorkItemsStarted                    0                       # number of work items this cpu started
system.cpu05.num_busy_cycles                        0                       # Number of busy cycles
system.cpu05.num_conditional_control_insts            0                       # number of instructions that are conditional controls
system.cpu05.num_fp_alu_accesses                    0                       # Number of float alu accesses
system.cpu05.num_fp_insts                           0                       # number of float instructions
system.cpu05.num_fp_register_reads                  0                       # number of times the floating registers were read
system.cpu05.num_fp_register_writes                 0                       # number of times the floating registers were written
system.cpu05.num_func_calls                         0                       # number of times a function call or return occured
system.cpu05.num_idle_cycles                        0                       # Number of idle cycles
system.cpu05.num_int_alu_accesses                   0                       # Number of integer alu accesses
system.cpu05.num_int_insts                          0                       # number of integer instructions
system.cpu05.num_int_register_reads                 0                       # number of times the integer registers were read
system.cpu05.num_int_register_writes                0                       # number of times the integer registers were written
system.cpu05.num_load_insts                         0                       # Number of load instructions
system.cpu05.num_mem_refs                           0                       # number of memory refs
system.cpu05.num_store_insts                        0                       # Number of store instructions
system.cpu05.num_vec_alu_accesses                   0                       # Number of vector alu accesses
system.cpu05.num_vec_insts                          0                       # number of vector instructions
system.cpu05.num_vec_register_reads                 0                       # number of times the vector registers were read
system.cpu05.num_vec_register_writes                0                       # number of times the vector registers were written
system.cpu05.op_class::No_OpClass                   0                       # Class of executed instruction
system.cpu05.op_class::IntAlu                       0                       # Class of executed instruction
system.cpu05.op_class::IntMult                      0                       # Class of executed instruction
system.cpu05.op_class::IntDiv                       0                       # Class of executed instruction
system.cpu05.op_class::FloatAdd                     0                       # Class of executed instruction
system.cpu05.op_class::FloatCmp                     0                       # Class of executed instruction
system.cpu05.op_class::FloatCvt                     0                       # Class of executed instruction
system.cpu05.op_class::FloatMult                    0                       # Class of executed instruction
system.cpu05.op_class::FloatMultAcc                 0                       # Class of executed instruction
system.cpu05.op_class::FloatDiv                     0                       # Class of executed instruction
system.cpu05.op_class::FloatMisc                    0                       # Class of executed instruction
system.cpu05.op_class::FloatSqrt                    0                       # Class of executed instruction
system.cpu05.op_class::SimdAdd                      0                       # Class of executed instruction
system.cpu05.op_class::SimdAddAcc                   0                       # Class of executed instruction
system.cpu05.op_class::SimdAlu                      0                       # Class of executed instruction
system.cpu05.op_class::SimdCmp                      0                       # Class of executed instruction
system.cpu05.op_class::SimdCvt                      0                       # Class of executed instruction
system.cpu05.op_class::SimdMisc                     0                       # Class of executed instruction
system.cpu05.op_class::SimdMult                     0                       # Class of executed instruction
system.cpu05.op_class::SimdMultAcc                  0                       # Class of executed instruction
system.cpu05.op_class::SimdShift                    0                       # Class of executed instruction
system.cpu05.op_class::SimdShiftAcc                 0                       # Class of executed instruction
system.cpu05.op_class::SimdDiv                      0                       # Class of executed instruction
system.cpu05.op_class::SimdSqrt                     0                       # Class of executed instruction
system.cpu05.op_class::SimdFloatAdd                 0                       # Class of executed instruction
system.cpu05.op_class::SimdFloatAlu                 0                       # Class of executed instruction
system.cpu05.op_class::SimdFloatCmp                 0                       # Class of executed instruction
system.cpu05.op_class::SimdFloatCvt                 0                       # Class of executed instruction
system.cpu05.op_class::SimdFloatDiv                 0                       # Class of executed instruction
system.cpu05.op_class::SimdFloatMisc                0                       # Class of executed instruction
system.cpu05.op_class::SimdFloatMult                0                       # Class of executed instruction
system.cpu05.op_class::SimdFloatMultAcc             0                       # Class of executed instruction
system.cpu05.op_class::SimdFloatSqrt                0                       # Class of executed instruction
system.cpu05.op_class::SimdReduceAdd                0                       # Class of executed instruction
system.cpu05.op_class::SimdReduceAlu                0                       # Class of executed instruction
system.cpu05.op_class::SimdReduceCmp                0                       # Class of executed instruction
system.cpu05.op_class::SimdFloatReduceAdd            0                       # Class of executed instruction
system.cpu05.op_class::SimdFloatReduceCmp            0                       # Class of executed instruction
system.cpu05.op_class::SimdAes                      0                       # Class of executed instruction
system.cpu05.op_class::SimdAesMix                   0                       # Class of executed instruction
system.cpu05.op_class::SimdSha1Hash                 0                       # Class of executed instruction
system.cpu05.op_class::SimdSha1Hash2                0                       # Class of executed instruction
system.cpu05.op_class::SimdSha256Hash               0                       # Class of executed instruction
system.cpu05.op_class::SimdSha256Hash2              0                       # Class of executed instruction
system.cpu05.op_class::SimdShaSigma2                0                       # Class of executed instruction
system.cpu05.op_class::SimdShaSigma3                0                       # Class of executed instruction
system.cpu05.op_class::SimdPredAlu                  0                       # Class of executed instruction
system.cpu05.op_class::MemRead                      0                       # Class of executed instruction
system.cpu05.op_class::MemWrite                     0                       # Class of executed instruction
system.cpu05.op_class::FloatMemRead                 0                       # Class of executed instruction
system.cpu05.op_class::FloatMemWrite                0                       # Class of executed instruction
system.cpu05.op_class::IprAccess                    0                       # Class of executed instruction
system.cpu05.op_class::InstPrefetch                 0                       # Class of executed instruction
system.cpu05.op_class::total                        0                       # Class of executed instruction
system.cpu06.committedInsts                         0                       # Number of instructions committed
system.cpu06.committedOps                           0                       # Number of ops (including micro ops) committed
system.cpu06.dtb.rdAccesses                         0                       # TLB accesses on read requests
system.cpu06.dtb.rdMisses                           0                       # TLB misses on read requests
system.cpu06.dtb.wrAccesses                         0                       # TLB accesses on write requests
system.cpu06.dtb.wrMisses                           0                       # TLB misses on write requests
system.cpu06.idle_fraction                          1                       # Percentage of idle cycles
system.cpu06.itb.rdAccesses                         0                       # TLB accesses on read requests
system.cpu06.itb.rdMisses                           0                       # TLB misses on read requests
system.cpu06.itb.wrAccesses                         0                       # TLB accesses on write requests
system.cpu06.itb.wrMisses                           0                       # TLB misses on write requests
system.cpu06.not_idle_fraction                      0                       # Percentage of non-idle cycles
system.cpu06.numCycles                              0                       # number of cpu cycles simulated
system.cpu06.numWorkItemsCompleted                  0                       # number of work items this cpu completed
system.cpu06.numWorkItemsStarted                    0                       # number of work items this cpu started
system.cpu06.num_busy_cycles                        0                       # Number of busy cycles
system.cpu06.num_conditional_control_insts            0                       # number of instructions that are conditional controls
system.cpu06.num_fp_alu_accesses                    0                       # Number of float alu accesses
system.cpu06.num_fp_insts                           0                       # number of float instructions
system.cpu06.num_fp_register_reads                  0                       # number of times the floating registers were read
system.cpu06.num_fp_register_writes                 0                       # number of times the floating registers were written
system.cpu06.num_func_calls                         0                       # number of times a function call or return occured
system.cpu06.num_idle_cycles                        0                       # Number of idle cycles
system.cpu06.num_int_alu_accesses                   0                       # Number of integer alu accesses
system.cpu06.num_int_insts                          0                       # number of integer instructions
system.cpu06.num_int_register_reads                 0                       # number of times the integer registers were read
system.cpu06.num_int_register_writes                0                       # number of times the integer registers were written
system.cpu06.num_load_insts                         0                       # Number of load instructions
system.cpu06.num_mem_refs                           0                       # number of memory refs
system.cpu06.num_store_insts                        0                       # Number of store instructions
system.cpu06.num_vec_alu_accesses                   0                       # Number of vector alu accesses
system.cpu06.num_vec_insts                          0                       # number of vector instructions
system.cpu06.num_vec_register_reads                 0                       # number of times the vector registers were read
system.cpu06.num_vec_register_writes                0                       # number of times the vector registers were written
system.cpu06.op_class::No_OpClass                   0                       # Class of executed instruction
system.cpu06.op_class::IntAlu                       0                       # Class of executed instruction
system.cpu06.op_class::IntMult                      0                       # Class of executed instruction
system.cpu06.op_class::IntDiv                       0                       # Class of executed instruction
system.cpu06.op_class::FloatAdd                     0                       # Class of executed instruction
system.cpu06.op_class::FloatCmp                     0                       # Class of executed instruction
system.cpu06.op_class::FloatCvt                     0                       # Class of executed instruction
system.cpu06.op_class::FloatMult                    0                       # Class of executed instruction
system.cpu06.op_class::FloatMultAcc                 0                       # Class of executed instruction
system.cpu06.op_class::FloatDiv                     0                       # Class of executed instruction
system.cpu06.op_class::FloatMisc                    0                       # Class of executed instruction
system.cpu06.op_class::FloatSqrt                    0                       # Class of executed instruction
system.cpu06.op_class::SimdAdd                      0                       # Class of executed instruction
system.cpu06.op_class::SimdAddAcc                   0                       # Class of executed instruction
system.cpu06.op_class::SimdAlu                      0                       # Class of executed instruction
system.cpu06.op_class::SimdCmp                      0                       # Class of executed instruction
system.cpu06.op_class::SimdCvt                      0                       # Class of executed instruction
system.cpu06.op_class::SimdMisc                     0                       # Class of executed instruction
system.cpu06.op_class::SimdMult                     0                       # Class of executed instruction
system.cpu06.op_class::SimdMultAcc                  0                       # Class of executed instruction
system.cpu06.op_class::SimdShift                    0                       # Class of executed instruction
system.cpu06.op_class::SimdShiftAcc                 0                       # Class of executed instruction
system.cpu06.op_class::SimdDiv                      0                       # Class of executed instruction
system.cpu06.op_class::SimdSqrt                     0                       # Class of executed instruction
system.cpu06.op_class::SimdFloatAdd                 0                       # Class of executed instruction
system.cpu06.op_class::SimdFloatAlu                 0                       # Class of executed instruction
system.cpu06.op_class::SimdFloatCmp                 0                       # Class of executed instruction
system.cpu06.op_class::SimdFloatCvt                 0                       # Class of executed instruction
system.cpu06.op_class::SimdFloatDiv                 0                       # Class of executed instruction
system.cpu06.op_class::SimdFloatMisc                0                       # Class of executed instruction
system.cpu06.op_class::SimdFloatMult                0                       # Class of executed instruction
system.cpu06.op_class::SimdFloatMultAcc             0                       # Class of executed instruction
system.cpu06.op_class::SimdFloatSqrt                0                       # Class of executed instruction
system.cpu06.op_class::SimdReduceAdd                0                       # Class of executed instruction
system.cpu06.op_class::SimdReduceAlu                0                       # Class of executed instruction
system.cpu06.op_class::SimdReduceCmp                0                       # Class of executed instruction
system.cpu06.op_class::SimdFloatReduceAdd            0                       # Class of executed instruction
system.cpu06.op_class::SimdFloatReduceCmp            0                       # Class of executed instruction
system.cpu06.op_class::SimdAes                      0                       # Class of executed instruction
system.cpu06.op_class::SimdAesMix                   0                       # Class of executed instruction
system.cpu06.op_class::SimdSha1Hash                 0                       # Class of executed instruction
system.cpu06.op_class::SimdSha1Hash2                0                       # Class of executed instruction
system.cpu06.op_class::SimdSha256Hash               0                       # Class of executed instruction
system.cpu06.op_class::SimdSha256Hash2              0                       # Class of executed instruction
system.cpu06.op_class::SimdShaSigma2                0                       # Class of executed instruction
system.cpu06.op_class::SimdShaSigma3                0                       # Class of executed instruction
system.cpu06.op_class::SimdPredAlu                  0                       # Class of executed instruction
system.cpu06.op_class::MemRead                      0                       # Class of executed instruction
system.cpu06.op_class::MemWrite                     0                       # Class of executed instruction
system.cpu06.op_class::FloatMemRead                 0                       # Class of executed instruction
system.cpu06.op_class::FloatMemWrite                0                       # Class of executed instruction
system.cpu06.op_class::IprAccess                    0                       # Class of executed instruction
system.cpu06.op_class::InstPrefetch                 0                       # Class of executed instruction
system.cpu06.op_class::total                        0                       # Class of executed instruction
system.cpu07.committedInsts                         0                       # Number of instructions committed
system.cpu07.committedOps                           0                       # Number of ops (including micro ops) committed
system.cpu07.dtb.rdAccesses                         0                       # TLB accesses on read requests
system.cpu07.dtb.rdMisses                           0                       # TLB misses on read requests
system.cpu07.dtb.wrAccesses                         0                       # TLB accesses on write requests
system.cpu07.dtb.wrMisses                           0                       # TLB misses on write requests
system.cpu07.idle_fraction                          1                       # Percentage of idle cycles
system.cpu07.itb.rdAccesses                         0                       # TLB accesses on read requests
system.cpu07.itb.rdMisses                           0                       # TLB misses on read requests
system.cpu07.itb.wrAccesses                         0                       # TLB accesses on write requests
system.cpu07.itb.wrMisses                           0                       # TLB misses on write requests
system.cpu07.not_idle_fraction                      0                       # Percentage of non-idle cycles
system.cpu07.numCycles                              0                       # number of cpu cycles simulated
system.cpu07.numWorkItemsCompleted                  0                       # number of work items this cpu completed
system.cpu07.numWorkItemsStarted                    0                       # number of work items this cpu started
system.cpu07.num_busy_cycles                        0                       # Number of busy cycles
system.cpu07.num_conditional_control_insts            0                       # number of instructions that are conditional controls
system.cpu07.num_fp_alu_accesses                    0                       # Number of float alu accesses
system.cpu07.num_fp_insts                           0                       # number of float instructions
system.cpu07.num_fp_register_reads                  0                       # number of times the floating registers were read
system.cpu07.num_fp_register_writes                 0                       # number of times the floating registers were written
system.cpu07.num_func_calls                         0                       # number of times a function call or return occured
system.cpu07.num_idle_cycles                        0                       # Number of idle cycles
system.cpu07.num_int_alu_accesses                   0                       # Number of integer alu accesses
system.cpu07.num_int_insts                          0                       # number of integer instructions
system.cpu07.num_int_register_reads                 0                       # number of times the integer registers were read
system.cpu07.num_int_register_writes                0                       # number of times the integer registers were written
system.cpu07.num_load_insts                         0                       # Number of load instructions
system.cpu07.num_mem_refs                           0                       # number of memory refs
system.cpu07.num_store_insts                        0                       # Number of store instructions
system.cpu07.num_vec_alu_accesses                   0                       # Number of vector alu accesses
system.cpu07.num_vec_insts                          0                       # number of vector instructions
system.cpu07.num_vec_register_reads                 0                       # number of times the vector registers were read
system.cpu07.num_vec_register_writes                0                       # number of times the vector registers were written
system.cpu07.op_class::No_OpClass                   0                       # Class of executed instruction
system.cpu07.op_class::IntAlu                       0                       # Class of executed instruction
system.cpu07.op_class::IntMult                      0                       # Class of executed instruction
system.cpu07.op_class::IntDiv                       0                       # Class of executed instruction
system.cpu07.op_class::FloatAdd                     0                       # Class of executed instruction
system.cpu07.op_class::FloatCmp                     0                       # Class of executed instruction
system.cpu07.op_class::FloatCvt                     0                       # Class of executed instruction
system.cpu07.op_class::FloatMult                    0                       # Class of executed instruction
system.cpu07.op_class::FloatMultAcc                 0                       # Class of executed instruction
system.cpu07.op_class::FloatDiv                     0                       # Class of executed instruction
system.cpu07.op_class::FloatMisc                    0                       # Class of executed instruction
system.cpu07.op_class::FloatSqrt                    0                       # Class of executed instruction
system.cpu07.op_class::SimdAdd                      0                       # Class of executed instruction
system.cpu07.op_class::SimdAddAcc                   0                       # Class of executed instruction
system.cpu07.op_class::SimdAlu                      0                       # Class of executed instruction
system.cpu07.op_class::SimdCmp                      0                       # Class of executed instruction
system.cpu07.op_class::SimdCvt                      0                       # Class of executed instruction
system.cpu07.op_class::SimdMisc                     0                       # Class of executed instruction
system.cpu07.op_class::SimdMult                     0                       # Class of executed instruction
system.cpu07.op_class::SimdMultAcc                  0                       # Class of executed instruction
system.cpu07.op_class::SimdShift                    0                       # Class of executed instruction
system.cpu07.op_class::SimdShiftAcc                 0                       # Class of executed instruction
system.cpu07.op_class::SimdDiv                      0                       # Class of executed instruction
system.cpu07.op_class::SimdSqrt                     0                       # Class of executed instruction
system.cpu07.op_class::SimdFloatAdd                 0                       # Class of executed instruction
system.cpu07.op_class::SimdFloatAlu                 0                       # Class of executed instruction
system.cpu07.op_class::SimdFloatCmp                 0                       # Class of executed instruction
system.cpu07.op_class::SimdFloatCvt                 0                       # Class of executed instruction
system.cpu07.op_class::SimdFloatDiv                 0                       # Class of executed instruction
system.cpu07.op_class::SimdFloatMisc                0                       # Class of executed instruction
system.cpu07.op_class::SimdFloatMult                0                       # Class of executed instruction
system.cpu07.op_class::SimdFloatMultAcc             0                       # Class of executed instruction
system.cpu07.op_class::SimdFloatSqrt                0                       # Class of executed instruction
system.cpu07.op_class::SimdReduceAdd                0                       # Class of executed instruction
system.cpu07.op_class::SimdReduceAlu                0                       # Class of executed instruction
system.cpu07.op_class::SimdReduceCmp                0                       # Class of executed instruction
system.cpu07.op_class::SimdFloatReduceAdd            0                       # Class of executed instruction
system.cpu07.op_class::SimdFloatReduceCmp            0                       # Class of executed instruction
system.cpu07.op_class::SimdAes                      0                       # Class of executed instruction
system.cpu07.op_class::SimdAesMix                   0                       # Class of executed instruction
system.cpu07.op_class::SimdSha1Hash                 0                       # Class of executed instruction
system.cpu07.op_class::SimdSha1Hash2                0                       # Class of executed instruction
system.cpu07.op_class::SimdSha256Hash               0                       # Class of executed instruction
system.cpu07.op_class::SimdSha256Hash2              0                       # Class of executed instruction
system.cpu07.op_class::SimdShaSigma2                0                       # Class of executed instruction
system.cpu07.op_class::SimdShaSigma3                0                       # Class of executed instruction
system.cpu07.op_class::SimdPredAlu                  0                       # Class of executed instruction
system.cpu07.op_class::MemRead                      0                       # Class of executed instruction
system.cpu07.op_class::MemWrite                     0                       # Class of executed instruction
system.cpu07.op_class::FloatMemRead                 0                       # Class of executed instruction
system.cpu07.op_class::FloatMemWrite                0                       # Class of executed instruction
system.cpu07.op_class::IprAccess                    0                       # Class of executed instruction
system.cpu07.op_class::InstPrefetch                 0                       # Class of executed instruction
system.cpu07.op_class::total                        0                       # Class of executed instruction
system.cpu08.committedInsts                         0                       # Number of instructions committed
system.cpu08.committedOps                           0                       # Number of ops (including micro ops) committed
system.cpu08.dtb.rdAccesses                         0                       # TLB accesses on read requests
system.cpu08.dtb.rdMisses                           0                       # TLB misses on read requests
system.cpu08.dtb.wrAccesses                         0                       # TLB accesses on write requests
system.cpu08.dtb.wrMisses                           0                       # TLB misses on write requests
system.cpu08.idle_fraction                          1                       # Percentage of idle cycles
[...]
system.mem_ctrls15.bw_write::.ruby.dir_cntrl15     13527721                       # Write bandwidth from this memory (bytes/s)
system.mem_ctrls15.bw_write::total           13527721                       # Write bandwidth from this memory (bytes/s)
system.mem_ctrls15.bw_total::.ruby.dir_cntrl15     27288931                       # Total bandwidth to/from this memory (bytes/s)
system.mem_ctrls15.bw_total::total           27288931                       # Total bandwidth to/from this memory (bytes/s)
system.mem_ctrls15.power_state.pwrStateResidencyTicks::UNDEFINED   4385661000                       # Cumulative time (in ticks) in various power states
system.mem_ctrls8.bytes_read::.ruby.dir_cntrl8        54208                       # Number of bytes read from this memory
system.mem_ctrls8.bytes_read::total             54208                       # Number of bytes read from this memory
system.mem_ctrls8.bytes_written::.ruby.dir_cntrl8        53120                       # Number of bytes written to this memory
system.mem_ctrls8.bytes_written::total          53120                       # Number of bytes written to this memory
system.mem_ctrls8.num_reads::.ruby.dir_cntrl8          847                       # Number of read requests responded to by this memory
system.mem_ctrls8.num_reads::total                847                       # Number of read requests responded to by this memory
system.mem_ctrls8.num_writes::.ruby.dir_cntrl8          830                       # Number of write requests responded to by this memory
system.mem_ctrls8.num_writes::total               830                       # Number of write requests responded to by this memory
system.mem_ctrls8.bw_read::.ruby.dir_cntrl8     12360280                       # Total read bandwidth from this memory (bytes/s)
system.mem_ctrls8.bw_read::total             12360280                       # Total read bandwidth from this memory (bytes/s)
system.mem_ctrls8.bw_write::.ruby.dir_cntrl8     12112199                       # Write bandwidth from this memory (bytes/s)
system.mem_ctrls8.bw_write::total            12112199                       # Write bandwidth from this memory (bytes/s)
system.mem_ctrls8.bw_total::.ruby.dir_cntrl8     24472480                       # Total bandwidth to/from this memory (bytes/s)
system.mem_ctrls8.bw_total::total            24472480                       # Total bandwidth to/from this memory (bytes/s)
system.mem_ctrls8.power_state.pwrStateResidencyTicks::UNDEFINED   4385661000                       # Cumulative time (in ticks) in various power states
system.mem_ctrls9.bytes_read::.ruby.dir_cntrl9        54912                       # Number of bytes read from this memory
system.mem_ctrls9.bytes_read::total             54912                       # Number of bytes read from this memory
system.mem_ctrls9.bytes_written::.ruby.dir_cntrl9        53952                       # Number of bytes written to this memory
system.mem_ctrls9.bytes_written::total          53952                       # Number of bytes written to this memory
system.mem_ctrls9.num_reads::.ruby.dir_cntrl9          858                       # Number of read requests responded to by this memory
system.mem_ctrls9.num_reads::total                858                       # Number of read requests responded to by this memory
system.mem_ctrls9.num_writes::.ruby.dir_cntrl9          843                       # Number of write requests responded to by this memory
system.mem_ctrls9.num_writes::total               843                       # Number of write requests responded to by this memory
system.mem_ctrls9.bw_read::.ruby.dir_cntrl9     12520804                       # Total read bandwidth from this memory (bytes/s)
system.mem_ctrls9.bw_read::total             12520804                       # Total read bandwidth from this memory (bytes/s)
system.mem_ctrls9.bw_write::.ruby.dir_cntrl9     12301908                       # Write bandwidth from this memory (bytes/s)
system.mem_ctrls9.bw_write::total            12301908                       # Write bandwidth from this memory (bytes/s)
system.mem_ctrls9.bw_total::.ruby.dir_cntrl9     24822712                       # Total bandwidth to/from this memory (bytes/s)
system.mem_ctrls9.bw_total::total            24822712                       # Total bandwidth to/from this memory (bytes/s)
system.mem_ctrls9.power_state.pwrStateResidencyTicks::UNDEFINED   4385661000                       # Cumulative time (in ticks) in various power states
system.mem_ctrls2.bytes_read::.ruby.dir_cntrl2        66624                       # Number of bytes read from this memory
system.mem_ctrls2.bytes_read::total             66624                       # Number of bytes read from this memory
system.mem_ctrls2.bytes_written::.ruby.dir_cntrl2        65600                       # Number of bytes written to this memory
system.mem_ctrls2.bytes_written::total          65600                       # Number of bytes written to this memory
system.mem_ctrls2.num_reads::.ruby.dir_cntrl2         1041                       # Number of read requests responded to by this memory
system.mem_ctrls2.num_reads::total               1041                       # Number of read requests responded to by this memory
system.mem_ctrls2.num_writes::.ruby.dir_cntrl2         1025                       # Number of write requests responded to by this memory
system.mem_ctrls2.num_writes::total              1025                       # Number of write requests responded to by this memory
system.mem_ctrls2.bw_read::.ruby.dir_cntrl2     15191325                       # Total read bandwidth from this memory (bytes/s)
system.mem_ctrls2.bw_read::total             15191325                       # Total read bandwidth from this memory (bytes/s)
system.mem_ctrls2.bw_write::.ruby.dir_cntrl2     14957836                       # Write bandwidth from this memory (bytes/s)
system.mem_ctrls2.bw_write::total            14957836                       # Write bandwidth from this memory (bytes/s)
system.mem_ctrls2.bw_total::.ruby.dir_cntrl2     30149161                       # Total bandwidth to/from this memory (bytes/s)
system.mem_ctrls2.bw_total::total            30149161                       # Total bandwidth to/from this memory (bytes/s)
system.mem_ctrls2.power_state.pwrStateResidencyTicks::UNDEFINED   4385661000                       # Cumulative time (in ticks) in various power states
system.mem_ctrls3.bytes_read::.ruby.dir_cntrl3        66304                       # Number of bytes read from this memory
system.mem_ctrls3.bytes_read::total             66304                       # Number of bytes read from this memory
system.mem_ctrls3.bytes_written::.ruby.dir_cntrl3        65280                       # Number of bytes written to this memory
system.mem_ctrls3.bytes_written::total          65280                       # Number of bytes written to this memory
system.mem_ctrls3.num_reads::.ruby.dir_cntrl3         1036                       # Number of read requests responded to by this memory
system.mem_ctrls3.num_reads::total               1036                       # Number of read requests responded to by this memory
system.mem_ctrls3.num_writes::.ruby.dir_cntrl3         1020                       # Number of write requests responded to by this memory
system.mem_ctrls3.num_writes::total              1020                       # Number of write requests responded to by this memory
system.mem_ctrls3.bw_read::.ruby.dir_cntrl3     15118360                       # Total read bandwidth from this memory (bytes/s)
system.mem_ctrls3.bw_read::total             15118360                       # Total read bandwidth from this memory (bytes/s)
system.mem_ctrls3.bw_write::.ruby.dir_cntrl3     14884871                       # Write bandwidth from this memory (bytes/s)
system.mem_ctrls3.bw_write::total            14884871                       # Write bandwidth from this memory (bytes/s)
system.mem_ctrls3.bw_total::.ruby.dir_cntrl3     30003231                       # Total bandwidth to/from this memory (bytes/s)
system.mem_ctrls3.bw_total::total            30003231                       # Total bandwidth to/from this memory (bytes/s)
system.mem_ctrls3.power_state.pwrStateResidencyTicks::UNDEFINED   4385661000                       # Cumulative time (in ticks) in various power states
system.mem_ctrls0.bytes_read::.ruby.dir_cntrl0        63872                       # Number of bytes read from this memory
system.mem_ctrls0.bytes_read::total             63872                       # Number of bytes read from this memory
system.mem_ctrls0.bytes_written::.ruby.dir_cntrl0        62848                       # Number of bytes written to this memory
system.mem_ctrls0.bytes_written::total          62848                       # Number of bytes written to this memory
system.mem_ctrls0.num_reads::.ruby.dir_cntrl0          998                       # Number of read requests responded to by this memory
system.mem_ctrls0.num_reads::total                998                       # Number of read requests responded to by this memory
system.mem_ctrls0.num_writes::.ruby.dir_cntrl0          982                       # Number of write requests responded to by this memory
system.mem_ctrls0.num_writes::total               982                       # Number of write requests responded to by this memory
system.mem_ctrls0.bw_read::.ruby.dir_cntrl0     14563825                       # Total read bandwidth from this memory (bytes/s)
system.mem_ctrls0.bw_read::total             14563825                       # Total read bandwidth from this memory (bytes/s)
system.mem_ctrls0.bw_write::.ruby.dir_cntrl0     14330337                       # Write bandwidth from this memory (bytes/s)
system.mem_ctrls0.bw_write::total            14330337                       # Write bandwidth from this memory (bytes/s)
system.mem_ctrls0.bw_total::.ruby.dir_cntrl0     28894162                       # Total bandwidth to/from this memory (bytes/s)
system.mem_ctrls0.bw_total::total            28894162                       # Total bandwidth to/from this memory (bytes/s)
system.mem_ctrls0.power_state.pwrStateResidencyTicks::UNDEFINED   4385661000                       # Cumulative time (in ticks) in various power states
system.mem_ctrls1.bytes_read::.ruby.dir_cntrl1        71424                       # Number of bytes read from this memory
system.mem_ctrls1.bytes_read::total             71424                       # Number of bytes read from this memory
system.mem_ctrls1.bytes_written::.ruby.dir_cntrl1        70400                       # Number of bytes written to this memory
system.mem_ctrls1.bytes_written::total          70400                       # Number of bytes written to this memory
system.mem_ctrls1.num_reads::.ruby.dir_cntrl1         1116                       # Number of read requests responded to by this memory
system.mem_ctrls1.num_reads::total               1116                       # Number of read requests responded to by this memory
system.mem_ctrls1.num_writes::.ruby.dir_cntrl1         1100                       # Number of write requests responded to by this memory
system.mem_ctrls1.num_writes::total              1100                       # Number of write requests responded to by this memory
system.mem_ctrls1.bw_read::.ruby.dir_cntrl1     16285800                       # Total read bandwidth from this memory (bytes/s)
system.mem_ctrls1.bw_read::total             16285800                       # Total read bandwidth from this memory (bytes/s)
system.mem_ctrls1.bw_write::.ruby.dir_cntrl1     16052312                       # Write bandwidth from this memory (bytes/s)
system.mem_ctrls1.bw_write::total            16052312                       # Write bandwidth from this memory (bytes/s)
system.mem_ctrls1.bw_total::.ruby.dir_cntrl1     32338113                       # Total bandwidth to/from this memory (bytes/s)
system.mem_ctrls1.bw_total::total            32338113                       # Total bandwidth to/from this memory (bytes/s)
system.mem_ctrls1.power_state.pwrStateResidencyTicks::UNDEFINED   4385661000                       # Cumulative time (in ticks) in various power states
system.mem_ctrls6.bytes_read::.ruby.dir_cntrl6        55040                       # Number of bytes read from this memory
system.mem_ctrls6.bytes_read::total             55040                       # Number of bytes read from this memory
system.mem_ctrls6.bytes_written::.ruby.dir_cntrl6        54016                       # Number of bytes written to this memory
system.mem_ctrls6.bytes_written::total          54016                       # Number of bytes written to this memory
system.mem_ctrls6.num_reads::.ruby.dir_cntrl6          860                       # Number of read requests responded to by this memory
system.mem_ctrls6.num_reads::total                860                       # Number of read requests responded to by this memory
system.mem_ctrls6.num_writes::.ruby.dir_cntrl6          844                       # Number of write requests responded to by this memory
system.mem_ctrls6.num_writes::total               844                       # Number of write requests responded to by this memory
system.mem_ctrls6.bw_read::.ruby.dir_cntrl6     12549990                       # Total read bandwidth from this memory (bytes/s)
system.mem_ctrls6.bw_read::total             12549990                       # Total read bandwidth from this memory (bytes/s)
system.mem_ctrls6.bw_write::.ruby.dir_cntrl6     12316501                       # Write bandwidth from this memory (bytes/s)
system.mem_ctrls6.bw_write::total            12316501                       # Write bandwidth from this memory (bytes/s)
system.mem_ctrls6.bw_total::.ruby.dir_cntrl6     24866491                       # Total bandwidth to/from this memory (bytes/s)
system.mem_ctrls6.bw_total::total            24866491                       # Total bandwidth to/from this memory (bytes/s)
system.mem_ctrls6.power_state.pwrStateResidencyTicks::UNDEFINED   4385661000                       # Cumulative time (in ticks) in various power states
system.mem_ctrls7.bytes_read::.ruby.dir_cntrl7        72576                       # Number of bytes read from this memory
system.mem_ctrls7.bytes_read::total             72576                       # Number of bytes read from this memory
system.mem_ctrls7.bytes_written::.ruby.dir_cntrl7        71552                       # Number of bytes written to this memory
system.mem_ctrls7.bytes_written::total          71552                       # Number of bytes written to this memory
system.mem_ctrls7.num_reads::.ruby.dir_cntrl7         1134                       # Number of read requests responded to by this memory
system.mem_ctrls7.num_reads::total               1134                       # Number of read requests responded to by this memory
system.mem_ctrls7.num_writes::.ruby.dir_cntrl7         1118                       # Number of write requests responded to by this memory
system.mem_ctrls7.num_writes::total              1118                       # Number of write requests responded to by this memory
system.mem_ctrls7.bw_read::.ruby.dir_cntrl7     16548475                       # Total read bandwidth from this memory (bytes/s)
system.mem_ctrls7.bw_read::total             16548475                       # Total read bandwidth from this memory (bytes/s)
system.mem_ctrls7.bw_write::.ruby.dir_cntrl7     16314986                       # Write bandwidth from this memory (bytes/s)
system.mem_ctrls7.bw_write::total            16314986                       # Write bandwidth from this memory (bytes/s)
system.mem_ctrls7.bw_total::.ruby.dir_cntrl7     32863461                       # Total bandwidth to/from this memory (bytes/s)
system.mem_ctrls7.bw_total::total            32863461                       # Total bandwidth to/from this memory (bytes/s)
system.mem_ctrls7.power_state.pwrStateResidencyTicks::UNDEFINED   4385661000                       # Cumulative time (in ticks) in various power states
system.mem_ctrls4.bytes_read::.ruby.dir_cntrl4        72832                       # Number of bytes read from this memory
system.mem_ctrls4.bytes_read::total             72832                       # Number of bytes read from this memory
system.mem_ctrls4.bytes_written::.ruby.dir_cntrl4        71808                       # Number of bytes written to this memory
system.mem_ctrls4.bytes_written::total          71808                       # Number of bytes written to this memory
system.mem_ctrls4.num_reads::.ruby.dir_cntrl4         1138                       # Number of read requests responded to by this memory
system.mem_ctrls4.num_reads::total               1138                       # Number of read requests responded to by this memory
system.mem_ctrls4.num_writes::.ruby.dir_cntrl4         1122                       # Number of write requests responded to by this memory
system.mem_ctrls4.num_writes::total              1122                       # Number of write requests responded to by this memory
system.mem_ctrls4.bw_read::.ruby.dir_cntrl4     16606847                       # Total read bandwidth from this memory (bytes/s)
system.mem_ctrls4.bw_read::total             16606847                       # Total read bandwidth from this memory (bytes/s)
system.mem_ctrls4.bw_write::.ruby.dir_cntrl4     16373359                       # Write bandwidth from this memory (bytes/s)
system.mem_ctrls4.bw_write::total            16373359                       # Write bandwidth from this memory (bytes/s)
system.mem_ctrls4.bw_total::.ruby.dir_cntrl4     32980205                       # Total bandwidth to/from this memory (bytes/s)
system.mem_ctrls4.bw_total::total            32980205                       # Total bandwidth to/from this memory (bytes/s)
system.mem_ctrls4.power_state.pwrStateResidencyTicks::UNDEFINED   4385661000                       # Cumulative time (in ticks) in various power states
system.mem_ctrls5.bytes_read::.ruby.dir_cntrl5        78464                       # Number of bytes read from this memory
system.mem_ctrls5.bytes_read::total             78464                       # Number of bytes read from this memory
system.mem_ctrls5.bytes_written::.ruby.dir_cntrl5        77440                       # Number of bytes written to this memory
system.mem_ctrls5.bytes_written::total          77440                       # Number of bytes written to this memory
system.mem_ctrls5.num_reads::.ruby.dir_cntrl5         1226                       # Number of read requests responded to by this memory
system.mem_ctrls5.num_reads::total               1226                       # Number of read requests responded to by this memory
system.mem_ctrls5.num_writes::.ruby.dir_cntrl5         1210                       # Number of write requests responded to by this memory
system.mem_ctrls5.num_writes::total              1210                       # Number of write requests responded to by this memory
system.mem_ctrls5.bw_read::.ruby.dir_cntrl5     17891032                       # Total read bandwidth from this memory (bytes/s)
system.mem_ctrls5.bw_read::total             17891032                       # Total read bandwidth from this memory (bytes/s)
system.mem_ctrls5.bw_write::.ruby.dir_cntrl5     17657544                       # Write bandwidth from this memory (bytes/s)
system.mem_ctrls5.bw_write::total            17657544                       # Write bandwidth from this memory (bytes/s)
system.mem_ctrls5.bw_total::.ruby.dir_cntrl5     35548575                       # Total bandwidth to/from this memory (bytes/s)
system.mem_ctrls5.bw_total::total            35548575                       # Total bandwidth to/from this memory (bytes/s)
system.mem_ctrls5.power_state.pwrStateResidencyTicks::UNDEFINED   4385661000                       # Cumulative time (in ticks) in various power states
system.cpu_voltage_domain.voltage                   1                       # Voltage in Volts

---------- End Simulation Statistics   ----------
