
---------- Begin Simulation Statistics ----------
final_tick                                  158168000                       # Number of ticks from beginning of simulation (restored from checkpoints and never reset)
host_inst_rate                                  32988                       # Simulator instruction rate (inst/s)
host_mem_usage                                4929100                       # Number of bytes of host memory used
host_op_rate                                    68656                       # Simulator op (including micro ops) rate (op/s)
host_seconds                                     0.95                       # Real time elapsed on the host
host_tick_rate                              166202546                       # Simulator tick rate (ticks/s)
sim_freq                                 1000000000000                       # Frequency of simulated ticks
sim_insts                                       31389                       # Number of instructions simulated
sim_ops                                         65335                       # Number of ops (including micro ops) simulated
sim_seconds                                  0.000158                       # Number of seconds simulated
sim_ticks                                   158168000                       # Number of ticks simulated
system.cpu00.Branches                            7151                       # Number of branches fetched
system.cpu00.committedInsts                     31389                       # Number of instructions committed
system.cpu00.committedOps                       65335                       # Number of ops (including micro ops) committed
system.cpu00.dtb.rdAccesses                      7491                       # TLB accesses on read requests
system.cpu00.dtb.rdMisses                          97                       # TLB misses on read requests
system.cpu00.dtb.wrAccesses                      3725                       # TLB accesses on write requests
system.cpu00.dtb.wrMisses                          12                       # TLB misses on write requests
system.cpu00.idle_fraction                   0.000000                       # Percentage of idle cycles
system.cpu00.itb.rdAccesses                         0                       # TLB accesses on read requests
system.cpu00.itb.rdMisses                           0                       # TLB misses on read requests
system.cpu00.itb.wrAccesses                     41131                       # TLB accesses on write requests
system.cpu00.itb.wrMisses                          91                       # TLB misses on write requests
system.cpu00.not_idle_fraction               1.000000                       # Percentage of non-idle cycles
system.cpu00.numCycles                         316336                       # number of cpu cycles simulated
system.cpu00.numWorkItemsCompleted                  0                       # number of work items this cpu completed
system.cpu00.numWorkItemsStarted                    0                       # number of work items this cpu started
system.cpu00.num_busy_cycles             316335.998000                       # Number of busy cycles
system.cpu00.num_cc_register_reads              46962                       # number of times the CC registers were read
system.cpu00.num_cc_register_writes             21438                       # number of times the CC registers were written
system.cpu00.num_conditional_control_insts         5734                       # number of instructions that are conditional controls
system.cpu00.num_fp_alu_accesses                 5132                       # Number of float alu accesses
system.cpu00.num_fp_insts                        5132                       # number of float instructions
system.cpu00.num_fp_register_reads               7917                       # number of times the floating registers were read
system.cpu00.num_fp_register_writes              3714                       # number of times the floating registers were written
system.cpu00.num_func_calls                      1049                       # number of times a function call or return occured
system.cpu00.num_idle_cycles                 0.002000                       # Number of idle cycles
system.cpu00.num_int_alu_accesses               62058                       # Number of integer alu accesses
system.cpu00.num_int_insts                      62058                       # number of integer instructions
system.cpu00.num_int_register_reads            119692                       # number of times the integer registers were read
system.cpu00.num_int_register_writes            50351                       # number of times the integer registers were written
system.cpu00.num_load_insts                      7478                       # Number of load instructions
system.cpu00.num_mem_refs                       11200                       # number of memory refs
system.cpu00.num_store_insts                     3722                       # Number of store instructions
system.cpu00.num_vec_alu_accesses                   0                       # Number of vector alu accesses
system.cpu00.num_vec_insts                          0                       # number of vector instructions
system.cpu00.num_vec_register_reads                 0                       # number of times the vector registers were read
system.cpu00.num_vec_register_writes                0                       # number of times the vector registers were written
system.cpu00.op_class::No_OpClass                 679      1.04%      1.04% # Class of executed instruction
system.cpu00.op_class::IntAlu                   50355     77.04%     78.08% # Class of executed instruction
system.cpu00.op_class::IntMult                     13      0.02%     78.10% # Class of executed instruction
system.cpu00.op_class::IntDiv                       0      0.00%     78.10% # Class of executed instruction
system.cpu00.op_class::FloatAdd                    50      0.08%     78.18% # Class of executed instruction
system.cpu00.op_class::FloatCmp                     0      0.00%     78.18% # Class of executed instruction
system.cpu00.op_class::FloatCvt                     0      0.00%     78.18% # Class of executed instruction
system.cpu00.op_class::FloatMult                    0      0.00%     78.18% # Class of executed instruction
system.cpu00.op_class::FloatMultAcc                 0      0.00%     78.18% # Class of executed instruction
system.cpu00.op_class::FloatDiv                     0      0.00%     78.18% # Class of executed instruction
system.cpu00.op_class::FloatMisc                    0      0.00%     78.18% # Class of executed instruction
system.cpu00.op_class::FloatSqrt                    0      0.00%     78.18% # Class of executed instruction
system.cpu00.op_class::SimdAdd                    410      0.63%     78.81% # Class of executed instruction
system.cpu00.op_class::SimdAddAcc                   0      0.00%     78.81% # Class of executed instruction
system.cpu00.op_class::SimdAlu                    735      1.12%     79.93% # Class of executed instruction
system.cpu00.op_class::SimdCmp                     12      0.02%     79.95% # Class of executed instruction
system.cpu00.op_class::SimdCvt                   1054      1.61%     81.56% # Class of executed instruction
system.cpu00.op_class::SimdMisc                   767      1.17%     82.73% # Class of executed instruction
system.cpu00.op_class::SimdMult                     0      0.00%     82.73% # Class of executed instruction
system.cpu00.op_class::SimdMultAcc                  0      0.00%     82.73% # Class of executed instruction
system.cpu00.op_class::SimdShift                   85      0.13%     82.86% # Class of executed instruction
system.cpu00.op_class::SimdShiftAcc                 0      0.00%     82.86% # Class of executed instruction
system.cpu00.op_class::SimdDiv                      0      0.00%     82.86% # Class of executed instruction
system.cpu00.op_class::SimdSqrt                     0      0.00%     82.86% # Class of executed instruction
system.cpu00.op_class::SimdFloatAdd                 0      0.00%     82.86% # Class of executed instruction
system.cpu00.op_class::SimdFloatAlu                 0      0.00%     82.86% # Class of executed instruction
system.cpu00.op_class::SimdFloatCmp                 0      0.00%     82.86% # Class of executed instruction
system.cpu00.op_class::SimdFloatCvt                 0      0.00%     82.86% # Class of executed instruction
system.cpu00.op_class::SimdFloatDiv                 0      0.00%     82.86% # Class of executed instruction
system.cpu00.op_class::SimdFloatMisc                0      0.00%     82.86% # Class of executed instruction
system.cpu00.op_class::SimdFloatMult                0      0.00%     82.86% # Class of executed instruction
system.cpu00.op_class::SimdFloatMultAcc             0      0.00%     82.86% # Class of executed instruction
system.cpu00.op_class::SimdFloatSqrt                0      0.00%     82.86% # Class of executed instruction
system.cpu00.op_class::SimdReduceAdd                0      0.00%     82.86% # Class of executed instruction
system.cpu00.op_class::SimdReduceAlu                0      0.00%     82.86% # Class of executed instruction
system.cpu00.op_class::SimdReduceCmp                0      0.00%     82.86% # Class of executed instruction
system.cpu00.op_class::SimdFloatReduceAdd            0      0.00%     82.86% # Class of executed instruction
system.cpu00.op_class::SimdFloatReduceCmp            0      0.00%     82.86% # Class of executed instruction
system.cpu00.op_class::SimdAes                      0      0.00%     82.86% # Class of executed instruction
system.cpu00.op_class::SimdAesMix                   0      0.00%     82.86% # Class of executed instruction
system.cpu00.op_class::SimdSha1Hash                 0      0.00%     82.86% # Class of executed instruction
system.cpu00.op_class::SimdSha1Hash2                0      0.00%     82.86% # Class of executed instruction
system.cpu00.op_class::SimdSha256Hash               0      0.00%     82.86% # Class of executed instruction
system.cpu00.op_class::SimdSha256Hash2              0      0.00%     82.86% # Class of executed instruction
system.cpu00.op_class::SimdShaSigma2                0      0.00%     82.86% # Class of executed instruction
system.cpu00.op_class::SimdShaSigma3                0      0.00%     82.86% # Class of executed instruction
system.cpu00.op_class::SimdPredAlu                  0      0.00%     82.86% # Class of executed instruction
system.cpu00.op_class::MemRead                   6335      9.69%     92.56% # Class of executed instruction
system.cpu00.op_class::MemWrite                  2920      4.47%     97.02% # Class of executed instruction
system.cpu00.op_class::FloatMemRead              1143      1.75%     98.77% # Class of executed instruction
system.cpu00.op_class::FloatMemWrite              802      1.23%    100.00% # Class of executed instruction
system.cpu00.op_class::IprAccess                    0      0.00%    100.00% # Class of executed instruction
system.cpu00.op_class::InstPrefetch                 0      0.00%    100.00% # Class of executed instruction
system.cpu00.op_class::total                    65360                       # Class of executed instruction
system.cpu00.workload.numSyscalls                  38                       # Number of system calls
system.cpu01.committedInsts                         0                       # Number of instructions committed
system.cpu01.committedOps                           0                       # Number of ops (including micro ops) committed
system.cpu01.dtb.rdAccesses                         0                       # TLB accesses on read requests
system.cpu01.dtb.rdMisses                           0                       # TLB misses on read requests
system.cpu01.dtb.wrAccesses                         0                       # TLB accesses on write requests
system.cpu01.dtb.wrMisses                           0                       # TLB misses on write requests
system.cpu01.idle_fraction                          1                       # Percentage of idle cycles
system.cpu01.itb.rdAccesses                         0                       # TLB accesses on read requests
system.cpu01.itb.rdMisses                           0                       # TLB misses on read requests
system.cpu01.itb.wrAccesses                         0                       # TLB accesses on write requests
system.cpu01.itb.wrMisses                           0                       # TLB misses on write requests
system.cpu01.not_idle_fraction                      0                       # Percentage of non-idle cycles
system.cpu01.numCycles                              0                       # number of cpu cycles simulated
system.cpu01.numWorkItemsCompleted                  0                       # number of work items this cpu completed
system.cpu01.numWorkItemsStarted                    0                       # number of work items this cpu started
system.cpu01.num_busy_cycles                        0                       # Number of busy cycles
system.cpu01.num_conditional_control_insts            0                       # number of instructions that are conditional controls
system.cpu01.num_fp_alu_accesses                    0                       # Number of float alu accesses
system.cpu01.num_fp_insts                           0                       # number of float instructions
system.cpu01.num_fp_register_reads                  0                       # number of times the floating registers were read
system.cpu01.num_fp_register_writes                 0                       # number of times the floating registers were written
system.cpu01.num_func_calls                         0                       # number of times a function call or return occured
system.cpu01.num_idle_cycles                        0                       # Number of idle cycles
system.cpu01.num_int_alu_accesses                   0                       # Number of integer alu accesses
system.cpu01.num_int_insts                          0                       # number of integer instructions
system.cpu01.num_int_register_reads                 0                       # number of times the integer registers were read
system.cpu01.num_int_register_writes                0                       # number of times the integer registers were written
system.cpu01.num_load_insts                         0                       # Number of load instructions
system.cpu01.num_mem_refs                           0                       # number of memory refs
system.cpu01.num_store_insts                        0                       # Number of store instructions
system.cpu01.num_vec_alu_accesses                   0                       # Number of vector alu accesses
system.cpu01.num_vec_insts                          0                       # number of vector instructions
system.cpu01.num_vec_register_reads                 0                       # number of times the vector registers were read
system.cpu01.num_vec_register_writes                0                       # number of times the vector registers were written
system.cpu01.op_class::No_OpClass                   0                       # Class of executed instruction
system.cpu01.op_class::IntAlu                       0                       # Class of executed instruction
system.cpu01.op_class::IntMult                      0                       # Class of executed instruction
system.cpu01.op_class::IntDiv                       0                       # Class of executed instruction
system.cpu01.op_class::FloatAdd                     0                       # Class of executed instruction
system.cpu01.op_class::FloatCmp                     0                       # Class of executed instruction
system.cpu01.op_class::FloatCvt                     0                       # Class of executed instruction
system.cpu01.op_class::FloatMult                    0                       # Class of executed instruction
system.cpu01.op_class::FloatMultAcc                 0                       # Class of executed instruction
system.cpu01.op_class::FloatDiv                     0                       # Class of executed instruction
system.cpu01.op_class::FloatMisc                    0                       # Class of executed instruction
system.cpu01.op_class::FloatSqrt                    0                       # Class of executed instruction
system.cpu01.op_class::SimdAdd                      0                       # Class of executed instruction
system.cpu01.op_class::SimdAddAcc                   0                       # Class of executed instruction
system.cpu01.op_class::SimdAlu                      0                       # Class of executed instruction
system.cpu01.op_class::SimdCmp                      0                       # Class of executed instruction
system.cpu01.op_class::SimdCvt                      0                       # Class of executed instruction
system.cpu01.op_class::SimdMisc                     0                       # Class of executed instruction
system.cpu01.op_class::SimdMult                     0                       # Class of executed instruction
system.cpu01.op_class::SimdMultAcc                  0                       # Class of executed instruction
system.cpu01.op_class::SimdShift                    0                       # Class of executed instruction
system.cpu01.op_class::SimdShiftAcc                 0                       # Class of executed instruction
system.cpu01.op_class::SimdDiv                      0                       # Class of executed instruction
system.cpu01.op_class::SimdSqrt                     0                       # Class of executed instruction
system.cpu01.op_class::SimdFloatAdd                 0                       # Class of executed instruction
system.cpu01.op_class::SimdFloatAlu                 0                       # Class of executed instruction
system.cpu01.op_class::SimdFloatCmp                 0                       # Class of executed instruction
system.cpu01.op_class::SimdFloatCvt                 0                       # Class of executed instruction
system.cpu01.op_class::SimdFloatDiv                 0                       # Class of executed instruction
system.cpu01.op_class::SimdFloatMisc                0                       # Class of executed instruction
system.cpu01.op_class::SimdFloatMult                0                       # Class of executed instruction
system.cpu01.op_class::SimdFloatMultAcc             0                       # Class of executed instruction
system.cpu01.op_class::SimdFloatSqrt                0                       # Class of executed instruction
system.cpu01.op_class::SimdReduceAdd                0                       # Class of executed instruction
system.cpu01.op_class::SimdReduceAlu                0                       # Class of executed instruction
system.cpu01.op_class::SimdReduceCmp                0                       # Class of executed instruction
system.cpu01.op_class::SimdFloatReduceAdd            0                       # Class of executed instruction
system.cpu01.op_class::SimdFloatReduceCmp            0                       # Class of executed instruction
system.cpu01.op_class::SimdAes                      0                       # Class of executed instruction
system.cpu01.op_class::SimdAesMix                   0                       # Class of executed instruction
system.cpu01.op_class::SimdSha1Hash                 0                       # Class of executed instruction
system.cpu01.op_class::SimdSha1Hash2                0                       # Class of executed instruction
system.cpu01.op_class::SimdSha256Hash               0                       # Class of executed instruction
system.cpu01.op_class::SimdSha256Hash2              0                       # Class of executed instruction
system.cpu01.op_class::SimdShaSigma2                0                       # Class of executed instruction
system.cpu01.op_class::SimdShaSigma3                0                       # Class of executed instruction
system.cpu01.op_class::SimdPredAlu                  0                       # Class of executed instruction
system.cpu01.op_class::MemRead                      0                       # Class of executed instruction
system.cpu01.op_class::MemWrite                     0                       # Class of executed instruction
system.cpu01.op_class::FloatMemRead                 0                       # Class of executed instruction
system.cpu01.op_class::FloatMemWrite                0                       # Class of executed instruction
system.cpu01.op_class::IprAccess                    0                       # Class of executed instruction
system.cpu01.op_class::InstPrefetch                 0                       # Class of executed instruction
system.cpu01.op_class::total                        0                       # Class of executed instruction
system.cpu02.committedInsts                         0                       # Number of instructions committed
system.cpu02.committedOps                           0                       # Number of ops (including micro ops) committed
system.cpu02.dtb.rdAccesses                         0                       # TLB accesses on read requests
system.cpu02.dtb.rdMisses                           0                       # TLB misses on read requests
system.cpu02.dtb.wrAccesses                         0                       # TLB accesses on write requests
system.cpu02.dtb.wrMisses                           0                       # TLB misses on write requests
system.cpu02.idle_fraction                          1                       # Percentage of idle cycles
system.cpu02.itb.rdAccesses                         0                       # TLB accesses on read requests
system.cpu02.itb.rdMisses                           0                       # TLB misses on read requests
system.cpu02.itb.wrAccesses                         0                       # TLB accesses on write requests
system.cpu02.itb.wrMisses                           0                       # TLB misses on write requests
system.cpu02.not_idle_fraction                      0                       # Percentage of non-idle cycles
system.cpu02.numCycles                              0                       # number of cpu cycles simulated
system.cpu02.numWorkItemsCompleted                  0                       # number of work items this cpu completed
system.cpu02.numWorkItemsStarted                    0                       # number of work items this cpu started
system.cpu02.num_busy_cycles                        0                       # Number of busy cycles
system.cpu02.num_conditional_control_insts            0                       # number of instructions that are conditional controls
system.cpu02.num_fp_alu_accesses                    0                       # Number of float alu accesses
system.cpu02.num_fp_insts                           0                       # number of float instructions
system.cpu02.num_fp_register_reads                  0                       # number of times the floating registers were read
system.cpu02.num_fp_register_writes                 0                       # number of times the floating registers were written
system.cpu02.num_func_calls                         0                       # number of times a function call or return occured
system.cpu02.num_idle_cycles                        0                       # Number of idle cycles
system.cpu02.num_int_alu_accesses                   0                       # Number of integer alu accesses
system.cpu02.num_int_insts                          0                       # number of integer instructions
system.cpu02.num_int_register_reads                 0                       # number of times the integer registers were read
system.cpu02.num_int_register_writes                0                       # number of times the integer registers were written
system.cpu02.num_load_insts                         0                       # Number of load instructions
system.cpu02.num_mem_refs                           0                       # number of memory refs
system.cpu02.num_store_insts                        0                       # Number of store instructions
system.cpu02.num_vec_alu_accesses                   0                       # Number of vector alu accesses
system.cpu02.num_vec_insts                          0                       # number of vector instructions
system.cpu02.num_vec_register_reads                 0                       # number of times the vector registers were read
system.cpu02.num_vec_register_writes                0                       # number of times the vector registers were written
system.cpu02.op_class::No_OpClass                   0                       # Class of executed instruction
system.cpu02.op_class::IntAlu                       0                       # Class of executed instruction
system.cpu02.op_class::IntMult                      0                       # Class of executed instruction
system.cpu02.op_class::IntDiv                       0                       # Class of executed instruction
system.cpu02.op_class::FloatAdd                     0                       # Class of executed instruction
system.cpu02.op_class::FloatCmp                     0                       # Class of executed instruction
system.cpu02.op_class::FloatCvt                     0                       # Class of executed instruction
system.cpu02.op_class::FloatMult                    0                       # Class of executed instruction
system.cpu02.op_class::FloatMultAcc                 0                       # Class of executed instruction
system.cpu02.op_class::FloatDiv                     0                       # Class of executed instruction
system.cpu02.op_class::FloatMisc                    0                       # Class of executed instruction
system.cpu02.op_class::FloatSqrt                    0                       # Class of executed instruction
system.cpu02.op_class::SimdAdd                      0                       # Class of executed instruction
system.cpu02.op_class::SimdAddAcc                   0                       # Class of executed instruction
system.cpu02.op_class::SimdAlu                      0                       # Class of executed instruction
system.cpu02.op_class::SimdCmp                      0                       # Class of executed instruction
system.cpu02.op_class::SimdCvt                      0                       # Class of executed instruction
system.cpu02.op_class::SimdMisc                     0                       # Class of executed instruction
system.cpu02.op_class::SimdMult                     0                       # Class of executed instruction
system.cpu02.op_class::SimdMultAcc                  0                       # Class of executed instruction
system.cpu02.op_class::SimdShift                    0                       # Class of executed instruction
system.cpu02.op_class::SimdShiftAcc                 0                       # Class of executed instruction
system.cpu02.op_class::SimdDiv                      0                       # Class of executed instruction
system.cpu02.op_class::SimdSqrt                     0                       # Class of executed instruction
system.cpu02.op_class::SimdFloatAdd                 0                       # Class of executed instruction
system.cpu02.op_class::SimdFloatAlu                 0                       # Class of executed instruction
system.cpu02.op_class::SimdFloatCmp                 0                       # Class of executed instruction
system.cpu02.op_class::SimdFloatCvt                 0                       # Class of executed instruction
system.cpu02.op_class::SimdFloatDiv                 0                       # Class of executed instruction
system.cpu02.op_class::SimdFloatMisc                0                       # Class of executed instruction
system.cpu02.op_class::SimdFloatMult                0                       # Class of executed instruction
system.cpu02.op_class::SimdFloatMultAcc             0                       # Class of executed instruction
system.cpu02.op_class::SimdFloatSqrt                0                       # Class of executed instruction
system.cpu02.op_class::SimdReduceAdd                0                       # Class of executed instruction
system.cpu02.op_class::SimdReduceAlu                0                       # Class of executed instruction
system.cpu02.op_class::SimdReduceCmp                0                       # Class of executed instruction
system.cpu02.op_class::SimdFloatReduceAdd            0                       # Class of executed instruction
system.cpu02.op_class::SimdFloatReduceCmp            0                       # Class of executed instruction
system.cpu02.op_class::SimdAes                      0                       # Class of executed instruction
system.cpu02.op_class::SimdAesMix                   0                       # Class of executed instruction
system.cpu02.op_class::SimdSha1Hash                 0                       # Class of executed instruction
system.cpu02.op_class::SimdSha1Hash2                0                       # Class of executed instruction
system.cpu02.op_class::SimdSha256Hash               0                       # Class of executed instruction
system.cpu02.op_class::SimdSha256Hash2              0                       # Class of executed instruction
system.cpu02.op_class::SimdShaSigma2                0                       # Class of executed instruction
system.cpu02.op_class::SimdShaSigma3                0                       # Class of executed instruction
system.cpu02.op_class::SimdPredAlu                  0                       # Class of executed instruction
system.cpu02.op_class::MemRead                      0                       # Class of executed instruction
system.cpu02.op_class::MemWrite                     0                       # Class of executed instruction
system.cpu02.op_class::FloatMemRead                 0                       # Class of executed instruction
system.cpu02.op_class::FloatMemWrite                0                       # Class of executed instruction
system.cpu02.op_class::IprAccess                    0                       # Class of executed instruction
system.cpu02.op_class::InstPrefetch                 0                       # Class of executed instruction
system.cpu02.op_class::total                        0                       # Class of executed instruction
system.cpu03.committedInsts                         0                       # Number of instructions committed
system.cpu03.committedOps                           0                       # Number of ops (including micro ops) committed
system.cpu03.dtb.rdAccesses                         0                       # TLB accesses on read requests
system.cpu03.dtb.rdMisses                           0                       # TLB misses on read requests
system.cpu03.dtb.wrAccesses                         0                       # TLB accesses on write requests
system.cpu03.dtb.wrMisses                           0                       # TLB misses on write requests
system.cpu03.idle_fraction                          1                       # Percentage of idle cycles
system.cpu03.itb.rdAccesses                         0                       # TLB accesses on read requests
system.cpu03.itb.rdMisses                           0                       # TLB misses on read requests
system.cpu03.itb.wrAccesses                         0                       # TLB accesses on write requests
system.cpu03.itb.wrMisses                           0                       # TLB misses on write requests
system.cpu03.not_idle_fraction                      0                       # Percentage of non-idle cycles
system.cpu03.numCycles                              0                       # number of cpu cycles simulated
system.cpu03.numWorkItemsCompleted                  0                       # number of work items this cpu completed
system.cpu03.numWorkItemsStarted                    0                       # number of work items this cpu started
system.cpu03.num_busy_cycles                        0                       # Number of busy cycles
system.cpu03.num_conditional_control_insts            0                       # number of instructions that are conditional controls
system.cpu03.num_fp_alu_accesses                    0                       # Number of float alu accesses
system.cpu03.num_fp_insts                           0                       # number of float instructions
system.cpu03.num_fp_register_reads                  0                       # number of times the floating registers were read
system.cpu03.num_fp_register_writes                 0                       # number of times the floating registers were written
system.cpu03.num_func_calls                         0                       # number of times a function call or return occured
system.cpu03.num_idle_cycles                        0                       # Number of idle cycles
system.cpu03.num_int_alu_accesses                   0                       # Number of integer alu accesses
system.cpu03.num_int_insts                          0                       # number of integer instructions
system.cpu03.num_int_register_reads                 0                       # number of times the integer registers were read
system.cpu03.num_int_register_writes                0                       # number of times the integer registers were written
system.cpu03.num_load_insts                         0                       # Number of load instructions
system.cpu03.num_mem_refs                           0                       # number of memory refs
system.cpu03.num_store_insts                        0                       # Number of store instructions
system.cpu03.num_vec_alu_accesses                   0                       # Number of vector alu accesses
system.cpu03.num_vec_insts                          0                       # number of vector instructions
system.cpu03.num_vec_register_reads                 0                       # number of times the vector registers were read
system.cpu03.num_vec_register_writes                0                       # number of times the vector registers were written
system.cpu03.op_class::No_OpClass                   0                       # Class of executed instruction
system.cpu03.op_class::IntAlu                       0                       # Class of executed instruction
system.cpu03.op_class::IntMult                      0                       # Class of executed instruction
system.cpu03.op_class::IntDiv                       0                       # Class of executed instruction
system.cpu03.op_class::FloatAdd                     0                       # Class of executed instruction
system.cpu03.op_class::FloatCmp                     0                       # Class of executed instruction
system.cpu03.op_class::FloatCvt                     0                       # Class of executed instruction
system.cpu03.op_class::FloatMult                    0                       # Class of executed instruction
system.cpu03.op_class::FloatMultAcc                 0                       # Class of executed instruction
system.cpu03.op_class::FloatDiv                     0                       # Class of executed instruction
system.cpu03.op_class::FloatMisc                    0                       # Class of executed instruction
system.cpu03.op_class::FloatSqrt                    0                       # Class of executed instruction
system.cpu03.op_class::SimdAdd                      0                       # Class of executed instruction
system.cpu03.op_class::SimdAddAcc                   0                       # Class of executed instruction
system.cpu03.op_class::SimdAlu                      0                       # Class of executed instruction
system.cpu03.op_class::SimdCmp                      0                       # Class of executed instruction
system.cpu03.op_class::SimdCvt                      0                       # Class of executed instruction
system.cpu03.op_class::SimdMisc                     0                       # Class of executed instruction
system.cpu03.op_class::SimdMult                     0                       # Class of executed instruction
system.cpu03.op_class::SimdMultAcc                  0                       # Class of executed instruction
system.cpu03.op_class::SimdShift                    0                       # Class of executed instruction
system.cpu03.op_class::SimdShiftAcc                 0                       # Class of executed instruction
system.cpu03.op_class::SimdDiv                      0                       # Class of executed instruction
system.cpu03.op_class::SimdSqrt                     0                       # Class of executed instruction
system.cpu03.op_class::SimdFloatAdd                 0                       # Class of executed instruction
system.cpu03.op_class::SimdFloatAlu                 0                       # Class of executed instruction
system.cpu03.op_class::SimdFloatCmp                 0                       # Class of executed instruction
system.cpu03.op_class::SimdFloatCvt                 0                       # Class of executed instruction
system.cpu03.op_class::SimdFloatDiv                 0                       # Class of executed instruction
system.cpu03.op_class::SimdFloatMisc                0                       # Class of executed instruction
system.cpu03.op_class::SimdFloatMult                0                       # Class of executed instruction
system.cpu03.op_class::SimdFloatMultAcc             0                       # Class of executed instruction
system.cpu03.op_class::SimdFloatSqrt                0                       # Class of executed instruction
system.cpu03.op_class::SimdReduceAdd                0                       # Class of executed instruction
system.cpu03.op_class::SimdReduceAlu                0                       # Class of executed instruction
system.cpu03.op_class::SimdReduceCmp                0                       # Class of executed instruction
system.cpu03.op_class::SimdFloatReduceAdd            0                       # Class of executed instruction
system.cpu03.op_class::SimdFloatReduceCmp            0                       # Class of executed instruction
system.cpu03.op_class::SimdAes                      0                       # Class of executed instruction
system.cpu03.op_class::SimdAesMix                   0                       # Class of executed instruction
system.cpu03.op_class::SimdSha1Hash                 0                       # Class of executed instruction
system.cpu03.op_class::SimdSha1Hash2                0                       # Class of executed instruction
system.cpu03.op_class::SimdSha256Hash               0                       # Class of executed instruction
system.cpu03.op_class::SimdSha256Hash2              0                       # Class of executed instruction
system.cpu03.op_class::SimdShaSigma2                0                       # Class of executed instruction
system.cpu03.op_class::SimdShaSigma3                0                       # Class of executed instruction
system.cpu03.op_class::SimdPredAlu                  0                       # Class of executed instruction
system.cpu03.op_class::MemRead                      0                       # Class of executed instruction
system.cpu03.op_class::MemWrite                     0                       # Class of executed instruction
system.cpu03.op_class::FloatMemRead                 0                       # Class of executed instruction
system.cpu03.op_class::FloatMemWrite                0                       # Class of executed instruction
system.cpu03.op_class::IprAccess                    0                       # Class of executed instruction
system.cpu03.op_class::InstPrefetch                 0                       # Class of executed instruction
system.cpu03.op_class::total                        0                       # Class of executed instruction
system.cpu04.committedInsts                         0                       # Number of instructions committed
system.cpu04.committedOps                           0                       # Number of ops (including micro ops) committed
system.cpu04.dtb.rdAccesses                         0                       # TLB accesses on read requests
system.cpu04.dtb.rdMisses                           0                       # TLB misses on read requests
system.cpu04.dtb.wrAccesses                         0                       # TLB accesses on write requests
system.cpu04.dtb.wrMisses                           0                       # TLB misses on write requests
system.cpu04.idle_fraction                          1                       # Percentage of idle cycles
system.cpu04.itb.rdAccesses                         0                       # TLB accesses on read requests
system.cpu04.itb.rdMisses                           0                       # TLB misses on read requests
system.cpu04.itb.wrAccesses                         0                       # TLB accesses on write requests
system.cpu04.itb.wrMisses                           0                       # TLB misses on write requests
system.cpu04.not_idle_fraction                      0                       # Percentage of non-idle cycles
system.cpu04.numCycles                              0                       # number of cpu cycles simulated
system.cpu04.numWorkItemsCompleted                  0                       # number of work items this cpu completed
system.cpu04.numWorkItemsStarted                    0                       # number of work items this cpu started
system.cpu04.num_busy_cycles                        0                       # Number of busy cycles
system.cpu04.num_conditional_control_insts            0                       # number of instructions that are conditional controls
system.cpu04.num_fp_alu_accesses                    0                       # Number of float alu accesses
system.cpu04.num_fp_insts                           0                       # number of float instructions
system.cpu04.num_fp_register_reads                  0                       # number of times the floating registers were read
system.cpu04.num_fp_register_writes                 0                       # number of times the floating registers were written
system.cpu04.num_func_calls                         0                       # number of times a function call or return occured
system.cpu04.num_idle_cycles                        0                       # Number of idle cycles
system.cpu04.num_int_alu_accesses                   0                       # Number of integer alu accesses
system.cpu04.num_int_insts                          0                       # number of integer instructions
system.cpu04.num_int_register_reads                 0                       # number of times the integer registers were read
system.cpu04.num_int_register_writes                0                       # number of times the integer registers were written
system.cpu04.num_load_insts                         0                       # Number of load instructions
system.cpu04.num_mem_refs                           0                       # number of memory refs
system.cpu04.num_store_insts                        0                       # Number of store instructions
system.cpu04.num_vec_alu_accesses                   0                       # Number of vector alu accesses
system.cpu04.num_vec_insts                          0                       # number of vector instructions
system.cpu04.num_vec_register_reads                 0                       # number of times the vector registers were read
system.cpu04.num_vec_register_writes                0                       # number of times the vector registers were written
system.cpu04.op_class::No_OpClass                   0                       # Class of executed instruction
system.cpu04.op_class::IntAlu                       0                       # Class of executed instruction
system.cpu04.op_class::IntMult                      0                       # Class of executed instruction
system.cpu04.op_class::IntDiv                       0                       # Class of executed instruction
system.cpu04.op_class::FloatAdd                     0                       # Class of executed instruction
system.cpu04.op_class::FloatCmp                     0                       # Class of executed instruction
system.cpu04.op_class::FloatCvt                     0                       # Class of executed instruction
system.cpu04.op_class::FloatMult                    0                       # Class of executed instruction
system.cpu04.op_class::FloatMultAcc                 0                       # Class of executed instruction
system.cpu04.op_class::FloatDiv                     0                       # Class of executed instruction
system.cpu04.op_class::FloatMisc                    0                       # Class of executed instruction
system.cpu04.op_class::FloatSqrt                    0                       # Class of executed instruction
system.cpu04.op_class::SimdAdd                      0                       # Class of executed instruction
system.cpu04.op_class::SimdAddAcc                   0                       # Class of executed instruction
system.cpu04.op_class::SimdAlu                      0                       # Class of executed instruction
system.cpu04.op_class::SimdCmp                      0                       # Class of executed instruction
system.cpu04.op_class::SimdCvt                      0                       # Class of executed instruction
system.cpu04.op_class::SimdMisc                     0                       # Class of executed instruction
system.cpu04.op_class::SimdMult                     0                       # Class of executed instruction
system.cpu04.op_class::SimdMultAcc                  0                       # Class of executed instruction
system.cpu04.op_class::SimdShift                    0                       # Class of executed instruction
system.cpu04.op_class::SimdShiftAcc                 0                       # Class of executed instruction
system.cpu04.op_class::SimdDiv                      0                       # Class of executed instruction
system.cpu04.op_class::SimdSqrt                     0                       # Class of executed instruction
system.cpu04.op_class::SimdFloatAdd                 0                       # Class of executed instruction
system.cpu04.op_class::SimdFloatAlu                 0                       # Class of executed instruction
system.cpu04.op_class::SimdFloatCmp                 0                       # Class of executed instruction
system.cpu04.op_class::SimdFloatCvt                 0                       # Class of executed instruction
system.cpu04.op_class::SimdFloatDiv                 0                       # Class of executed instruction
system.cpu04.op_class::SimdFloatMisc                0                       # Class of executed instruction
system.cpu04.op_class::SimdFloatMult                0                       # Class of executed instruction
system.cpu04.op_class::SimdFloatMultAcc             0                       # Class of executed instruction
system.cpu04.op_class::SimdFloatSqrt                0                       # Class of executed instruction
system.cpu04.op_class::SimdReduceAdd                0                       # Class of executed instruction
system.cpu04.op_class::SimdReduceAlu                0                       # Class of executed instruction
system.cpu04.op_class::SimdReduceCmp                0                       # Class of executed instruction
system.cpu04.op_class::SimdFloatReduceAdd            0                       # Class of executed instruction
system.cpu04.op_class::SimdFloatReduceCmp            0                       # Class of executed instruction
system.cpu04.op_class::SimdAes                      0                       # Class of executed instruction
system.cpu04.op_class::SimdAesMix                   0                       # Class of executed instruction
system.cpu04.op_class::SimdSha1Hash                 0                       # Class of executed instruction
system.cpu04.op_class::SimdSha1Hash2                0                       # Class of executed instruction
system.cpu04.op_class::SimdSha256Hash               0                       # Class of executed instruction
system.cpu04.op_class::SimdSha256Hash2              0                       # Class of executed instruction
system.cpu04.op_class::SimdShaSigma2                0                       # Class of executed instruction
system.cpu04.op_class::SimdShaSigma3                0                       # Class of executed instruction
system.cpu04.op_class::SimdPredAlu                  0                       # Class of executed instruction
system.cpu04.op_class::MemRead                      0                       # Class of executed instruction
system.cpu04.op_class::MemWrite                     0                       # Class of executed instruction
system.cpu04.op_class::FloatMemRead                 0                       # Class of executed instruction
system.cpu04.op_class::FloatMemWrite                0                       # Class of executed instruction
system.cpu04.op_class::IprAccess                    0                       # Class of executed instruction
system.cpu04.op_class::InstPrefetch                 0                       # Class of executed instruction
system.cpu04.op_class::total                        0                       # Class of executed instruction
system.cpu05.committedInsts                         0                       # Number of instructions committed
system.cpu05.committedOps                           0                       # Number of ops (including micro ops) committed
system.cpu05.dtb.rdAccesses                         0                       # TLB accesses on read requests
system.cpu05.dtb.rdMisses                           0                       # TLB misses on read requests
system.cpu05.dtb.wrAccesses                         0                       # TLB accesses on write requests
system.cpu05.dtb.wrMisses                           0                       # TLB misses on write requests
system.cpu05.idle_fraction                          1                       # Percentage of idle cycles
system.cpu05.itb.rdAccesses                         0                       # TLB accesses on read requests
system.cpu05.itb.rdMisses                           0                       # TLB misses on read requests
system.cpu05.itb.wrAccesses                         0                       # TLB accesses on write requests
system.cpu05.itb.wrMisses                           0                       # TLB misses on write requests
system.cpu05.not_idle_fraction                      0                       # Percentage of non-idle cycles
system.cpu05.numCycles                              0                       # number of cpu cycles simulated
system.cpu05.numWorkItemsCompleted                  0                       # number of work items this cpu completed
system.cpu05.numWorkItemsStarted                    0                       # number of work items this cpu started
system.cpu05.num_busy_cycles                        0                       # Number of busy cycles
system.cpu05.num_conditional_control_insts            0                       # number of instructions that are conditional controls
system.cpu05.num_fp_alu_accesses                    0                       # Number of float alu accesses
system.cpu05.num_fp_insts                           0                       # number of float instructions
system.cpu05.num_fp_register_reads                  0                       # number of times the floating registers were read
system.cpu05.num_fp_register_writes                 0                       # number of times the floating registers were written
system.cpu05.num_func_calls                         0                       # number of times a function call or return occured
system.cpu05.num_idle_cycles                        0                       # Number of idle cycles
system.cpu05.num_int_alu_accesses                   0                       # Number of integer alu accesses
system.cpu05.num_int_insts                          0                       # number of integer instructions
system.cpu05.num_int_register_reads                 0                       # number of times the integer registers were read
system.cpu05.num_int_register_writes                0                       # number of times the integer registers were written
system.cpu05.num_load_insts                         0                       # Number of load instructions
system.cpu05.num_mem_refs                           0                       # number of memory refs
system.cpu05.num_store_insts                        0                       # Number of store instructions
system.cpu05.num_vec_alu_accesses                   0                       # Number of vector alu accesses
system.cpu05.num_vec_insts                          0                       # number of vector instructions
system.cpu05.num_vec_register_reads                 0                       # number of times the vector registers were read
system.cpu05.num_vec_register_writes                0                       # number of times the vector registers were written
system.cpu05.op_class::No_OpClass                   0                       # Class of executed instruction
system.cpu05.op_class::IntAlu                       0                       # Class of executed instruction
system.cpu05.op_class::IntMult                      0                       # Class of executed instruction
system.cpu05.op_class::IntDiv                       0                       # Class of executed instruction
system.cpu05.op_class::FloatAdd                     0                       # Class of executed instruction
system.cpu05.op_class::FloatCmp                     0                       # Class of executed instruction
system.cpu05.op_class::FloatCvt                     0                       # Class of executed instruction
system.cpu05.op_class::FloatMult                    0                       # Class of executed instruction
system.cpu05.op_class::FloatMultAcc                 0                       # Class of executed instruction
system.cpu05.op_class::FloatDiv                     0                       # Class of executed instruction
system.cpu05.op_class::FloatMisc                    0                       # Class of executed instruction
system.cpu05.op_class::FloatSqrt                    0                       # Class of executed instruction
system.cpu05.op_class::SimdAdd                      0                       # Class of executed instruction
system.cpu05.op_class::SimdAddAcc                   0                       # Class of executed instruction
system.cpu05.op_class::SimdAlu                      0                       # Class of executed instruction
system.cpu05.op_class::SimdCmp                      0                       # Class of executed instruction
system.cpu05.op_class::SimdCvt                      0                       # Class of executed instruction
system.cpu05.op_class::SimdMisc                     0                       # Class of executed instruction
system.cpu05.op_class::SimdMult                     0                       # Class of executed instruction
system.cpu05.op_class::SimdMultAcc                  0                       # Class of executed instruction
system.cpu05.op_class::SimdShift                    0                       # Class of executed instruction
system.cpu05.op_class::SimdShiftAcc                 0                       # Class of executed instruction
system.cpu05.op_class::SimdDiv                      0                       # Class of executed instruction
system.cpu05.op_class::SimdSqrt                     0                       # Class of executed instruction
system.cpu05.op_class::SimdFloatAdd                 0                       # Class of executed instruction
system.cpu05.op_class::SimdFloatAlu                 0                       # Class of executed instruction
system.cpu05.op_class::SimdFloatCmp                 0                       # Class of executed instruction
system.cpu05.op_class::SimdFloatCvt                 0                       # Class of executed instruction
system.cpu05.op_class::SimdFloatDiv                 0                       # Class of executed instruction
system.cpu05.op_class::SimdFloatMisc                0                       # Class of executed instruction
system.cpu05.op_class::SimdFloatMult                0                       # Class of executed instruction
system.cpu05.op_class::SimdFloatMultAcc             0                       # Class of executed instruction
system.cpu05.op_class::SimdFloatSqrt                0                       # Class of executed instruction
system.cpu05.op_class::SimdReduceAdd                0                       # Class of executed instruction
system.cpu05.op_class::SimdReduceAlu                0                       # Class of executed instruction
system.cpu05.op_class::SimdReduceCmp                0                       # Class of executed instruction
system.cpu05.op_class::SimdFloatReduceAdd            0                       # Class of executed instruction
system.cpu05.op_class::SimdFloatReduceCmp            0                       # Class of executed instruction
system.cpu05.op_class::SimdAes                      0                       # Class of executed instruction
system.cpu05.op_class::SimdAesMix                   0                       # Class of executed instruction
system.cpu05.op_class::SimdSha1Hash                 0                       # Class of executed instruction
system.cpu05.op_class::SimdSha1Hash2                0                       # Class of executed instruction
system.cpu05.op_class::SimdSha256Hash               0                       # Class of executed instruction
system.cpu05.op_class::SimdSha256Hash2              0                       # Class of executed instruction
system.cpu05.op_class::SimdShaSigma2                0                       # Class of executed instruction
system.cpu05.op_class::SimdShaSigma3                0                       # Class of executed instruction
system.cpu05.op_class::SimdPredAlu                  0                       # Class of executed instruction
system.cpu05.op_class::MemRead                      0                       # Class of executed instruction
system.cpu05.op_class::MemWrite                     0                       # Class of executed instruction
system.cpu05.op_class::FloatMemRead                 0                       # Class of executed instruction
system.cpu05.op_class::FloatMemWrite                0                       # Class of executed instruction
system.cpu05.op_class::IprAccess                    0                       # Class of executed instruction
system.cpu05.op_class::InstPrefetch                 0                       # Class of executed instruction
system.cpu05.op_class::total                        0                       # Class of executed instruction
system.cpu06.committedInsts                         0                       # Number of instructions committed
system.cpu06.committedOps                           0                       # Number of ops (including micro ops) committed
system.cpu06.dtb.rdAccesses                         0                       # TLB accesses on read requests
system.cpu06.dtb.rdMisses                           0                       # TLB misses on read requests
system.cpu06.dtb.wrAccesses                         0                       # TLB accesses on write requests
system.cpu06.dtb.wrMisses                           0                       # TLB misses on write requests
system.cpu06.idle_fraction                          1                       # Percentage of idle cycles
system.cpu06.itb.rdAccesses                         0                       # TLB accesses on read requests
system.cpu06.itb.rdMisses                           0                       # TLB misses on read requests
system.cpu06.itb.wrAccesses                         0                       # TLB accesses on write requests
system.cpu06.itb.wrMisses                           0                       # TLB misses on write requests
system.cpu06.not_idle_fraction                      0                       # Percentage of non-idle cycles
system.cpu06.numCycles                              0                       # number of cpu cycles simulated
system.cpu06.numWorkItemsCompleted                  0                       # number of work items this cpu completed
system.cpu06.numWorkItemsStarted                    0                       # number of work items this cpu started
system.cpu06.num_busy_cycles                        0                       # Number of busy cycles
system.cpu06.num_conditional_control_insts            0                       # number of instructions that are conditional controls
system.cpu06.num_fp_alu_accesses                    0                       # Number of float alu accesses
system.cpu06.num_fp_insts                           0                       # number of float instructions
system.cpu06.num_fp_register_reads                  0                       # number of times the floating registers were read
system.cpu06.num_fp_register_writes                 0                       # number of times the floating registers were written
system.cpu06.num_func_calls                         0                       # number of times a function call or return occured
system.cpu06.num_idle_cycles                        0                       # Number of idle cycles
system.cpu06.num_int_alu_accesses                   0                       # Number of integer alu accesses
system.cpu06.num_int_insts                          0                       # number of integer instructions
system.cpu06.num_int_register_reads                 0                       # number of times the integer registers were read
system.cpu06.num_int_register_writes                0                       # number of times the integer registers were written
system.cpu06.num_load_insts                         0                       # Number of load instructions
system.cpu06.num_mem_refs                           0                       # number of memory refs
system.cpu06.num_store_insts                        0                       # Number of store instructions
system.cpu06.num_vec_alu_accesses                   0                       # Number of vector alu accesses
system.cpu06.num_vec_insts                          0                       # number of vector instructions
system.cpu06.num_vec_register_reads                 0                       # number of times the vector registers were read
system.cpu06.num_vec_register_writes                0                       # number of times the vector registers were written
system.cpu06.op_class::No_OpClass                   0                       # Class of executed instruction
system.cpu06.op_class::IntAlu                       0                       # Class of executed instruction
system.cpu06.op_class::IntMult                      0                       # Class of executed instruction
system.cpu06.op_class::IntDiv                       0                       # Class of executed instruction
system.cpu06.op_class::FloatAdd                     0                       # Class of executed instruction
system.cpu06.op_class::FloatCmp                     0                       # Class of executed instruction
system.cpu06.op_class::FloatCvt                     0                       # Class of executed instruction
system.cpu06.op_class::FloatMult                    0                       # Class of executed instruction
system.cpu06.op_class::FloatMultAcc                 0                       # Class of executed instruction
system.cpu06.op_class::FloatDiv                     0                       # Class of executed instruction
system.cpu06.op_class::FloatMisc                    0                       # Class of executed instruction
system.cpu06.op_class::FloatSqrt                    0                       # Class of executed instruction
system.cpu06.op_class::SimdAdd                      0                       # Class of executed instruction
system.cpu06.op_class::SimdAddAcc                   0                       # Class of executed instruction
system.cpu06.op_class::SimdAlu                      0                       # Class of executed instruction
system.cpu06.op_class::SimdCmp                      0                       # Class of executed instruction
system.cpu06.op_class::SimdCvt                      0                       # Class of executed instruction
system.cpu06.op_class::SimdMisc                     0                       # Class of executed instruction
system.cpu06.op_class::SimdMult                     0                       # Class of executed instruction
system.cpu06.op_class::SimdMultAcc                  0                       # Class of executed instruction
system.cpu06.op_class::SimdShift                    0                       # Class of executed instruction
system.cpu06.op_class::SimdShiftAcc                 0                       # Class of executed instruction
system.cpu06.op_class::SimdDiv                      0                       # Class of executed instruction
system.cpu06.op_class::SimdSqrt                     0                       # Class of executed instruction
system.cpu06.op_class::SimdFloatAdd                 0                       # Class of executed instruction
system.cpu06.op_class::SimdFloatAlu                 0                       # Class of executed instruction
system.cpu06.op_class::SimdFloatCmp                 0                       # Class of executed instruction
system.cpu06.op_class::SimdFloatCvt                 0                       # Class of executed instruction
system.cpu06.op_class::SimdFloatDiv                 0                       # Class of executed instruction
system.cpu06.op_class::SimdFloatMisc                0                       # Class of executed instruction
system.cpu06.op_class::SimdFloatMult                0                       # Class of executed instruction
system.cpu06.op_class::SimdFloatMultAcc             0                       # Class of executed instruction
system.cpu06.op_class::SimdFloatSqrt                0                       # Class of executed instruction
system.cpu06.op_class::SimdReduceAdd                0                       # Class of executed instruction
system.cpu06.op_class::SimdReduceAlu                0                       # Class of executed instruction
system.cpu06.op_class::SimdReduceCmp                0                       # Class of executed instruction
system.cpu06.op_class::SimdFloatReduceAdd            0                       # Class of executed instruction
system.cpu06.op_class::SimdFloatReduceCmp            0                       # Class of executed instruction
system.cpu06.op_class::SimdAes                      0                       # Class of executed instruction
system.cpu06.op_class::SimdAesMix                   0                       # Class of executed instruction
system.cpu06.op_class::SimdSha1Hash                 0                       # Class of executed instruction
system.cpu06.op_class::SimdSha1Hash2                0                       # Class of executed instruction
system.cpu06.op_class::SimdSha256Hash               0                       # Class of executed instruction
system.cpu06.op_class::SimdSha256Hash2              0                       # Class of executed instruction
system.cpu06.op_class::SimdShaSigma2                0                       # Class of executed instruction
system.cpu06.op_class::SimdShaSigma3                0                       # Class of executed instruction
system.cpu06.op_class::SimdPredAlu                  0                       # Class of executed instruction
system.cpu06.op_class::MemRead                      0                       # Class of executed instruction
system.cpu06.op_class::MemWrite                     0                       # Class of executed instruction
system.cpu06.op_class::FloatMemRead                 0                       # Class of executed instruction
system.cpu06.op_class::FloatMemWrite                0                       # Class of executed instruction
system.cpu06.op_class::IprAccess                    0                       # Class of executed instruction
system.cpu06.op_class::InstPrefetch                 0                       # Class of executed instruction
system.cpu06.op_class::total                        0                       # Class of executed instruction
system.cpu07.committedInsts                         0                       # Number of instructions committed
system.cpu07.committedOps                           0                       # Number of ops (including micro ops) committed
system.cpu07.dtb.rdAccesses                         0                       # TLB accesses on read requests
system.cpu07.dtb.rdMisses                           0                       # TLB misses on read requests
system.cpu07.dtb.wrAccesses                         0                       # TLB accesses on write requests
system.cpu07.dtb.wrMisses                           0                       # TLB misses on write requests
system.cpu07.idle_fraction                          1                       # Percentage of idle cycles
system.cpu07.itb.rdAccesses                         0                       # TLB accesses on read requests
system.cpu07.itb.rdMisses                           0                       # TLB misses on read requests
system.cpu07.itb.wrAccesses                         0                       # TLB accesses on write requests
system.cpu07.itb.wrMisses                           0                       # TLB misses on write requests
system.cpu07.not_idle_fraction                      0                       # Percentage of non-idle cycles
system.cpu07.numCycles                              0                       # number of cpu cycles simulated
system.cpu07.numWorkItemsCompleted                  0                       # number of work items this cpu completed
system.cpu07.numWorkItemsStarted                    0                       # number of work items this cpu started
system.cpu07.num_busy_cycles                        0                       # Number of busy cycles
system.cpu07.num_conditional_control_insts            0                       # number of instructions that are conditional controls
system.cpu07.num_fp_alu_accesses                    0                       # Number of float alu accesses
system.cpu07.num_fp_insts                           0                       # number of float instructions
system.cpu07.num_fp_register_reads                  0                       # number of times the floating registers were read
system.cpu07.num_fp_register_writes                 0                       # number of times the floating registers were written
system.cpu07.num_func_calls                         0                       # number of times a function call or return occured
system.cpu07.num_idle_cycles                        0                       # Number of idle cycles
system.cpu07.num_int_alu_accesses                   0                       # Number of integer alu accesses
system.cpu07.num_int_insts                          0                       # number of integer instructions
system.cpu07.num_int_register_reads                 0                       # number of times the integer registers were read
system.cpu07.num_int_register_writes                0                       # number of times the integer registers were written
system.cpu07.num_load_insts                         0                       # Number of load instructions
system.cpu07.num_mem_refs                           0                       # number of memory refs
system.cpu07.num_store_insts                        0                       # Number of store instructions
system.cpu07.num_vec_alu_accesses                   0                       # Number of vector alu accesses
system.cpu07.num_vec_insts                          0                       # number of vector instructions
system.cpu07.num_vec_register_reads                 0                       # number of times the vector registers were read
system.cpu07.num_vec_register_writes                0                       # number of times the vector registers were written
system.cpu07.op_class::No_OpClass                   0                       # Class of executed instruction
system.cpu07.op_class::IntAlu                       0                       # Class of executed instruction
system.cpu07.op_class::IntMult                      0                       # Class of executed instruction
system.cpu07.op_class::IntDiv                       0                       # Class of executed instruction
system.cpu07.op_class::FloatAdd                     0                       # Class of executed instruction
system.cpu07.op_class::FloatCmp                     0                       # Class of executed instruction
system.cpu07.op_class::FloatCvt                     0                       # Class of executed instruction
system.cpu07.op_class::FloatMult                    0                       # Class of executed instruction
system.cpu07.op_class::FloatMultAcc                 0                       # Class of executed instruction
system.cpu07.op_class::FloatDiv                     0                       # Class of executed instruction
system.cpu07.op_class::FloatMisc                    0                       # Class of executed instruction
system.cpu07.op_class::FloatSqrt                    0                       # Class of executed instruction
system.cpu07.op_class::SimdAdd                      0                       # Class of executed instruction
system.cpu07.op_class::SimdAddAcc                   0                       # Class of executed instruction
system.cpu07.op_class::SimdAlu                      0                       # Class of executed instruction
system.cpu07.op_class::SimdCmp                      0                       # Class of executed instruction
system.cpu07.op_class::SimdCvt                      0                       # Class of executed instruction
system.cpu07.op_class::SimdMisc                     0                       # Class of executed instruction
system.cpu07.op_class::SimdMult                     0                       # Class of executed instruction
system.cpu07.op_class::SimdMultAcc                  0                       # Class of executed instruction
system.cpu07.op_class::SimdShift                    0                       # Class of executed instruction
system.cpu07.op_class::SimdShiftAcc                 0                       # Class of executed instruction
system.cpu07.op_class::SimdDiv                      0                       # Class of executed instruction
system.cpu07.op_class::SimdSqrt                     0                       # Class of executed instruction
system.cpu07.op_class::SimdFloatAdd                 0                       # Class of executed instruction
system.cpu07.op_class::SimdFloatAlu                 0                       # Class of executed instruction
system.cpu07.op_class::SimdFloatCmp                 0                       # Class of executed instruction
system.cpu07.op_class::SimdFloatCvt                 0                       # Class of executed instruction
system.cpu07.op_class::SimdFloatDiv                 0                       # Class of executed instruction
system.cpu07.op_class::SimdFloatMisc                0                       # Class of executed instruction
system.cpu07.op_class::SimdFloatMult                0                       # Class of executed instruction
system.cpu07.op_class::SimdFloatMultAcc             0                       # Class of executed instruction
system.cpu07.op_class::SimdFloatSqrt                0                       # Class of executed instruction
system.cpu07.op_class::SimdReduceAdd                0                       # Class of executed instruction
system.cpu07.op_class::SimdReduceAlu                0                       # Class of executed instruction
system.cpu07.op_class::SimdReduceCmp                0                       # Class of executed instruction
system.cpu07.op_class::SimdFloatReduceAdd            0                       # Class of executed instruction
system.cpu07.op_class::SimdFloatReduceCmp            0                       # Class of executed instruction
system.cpu07.op_class::SimdAes                      0                       # Class of executed instruction
system.cpu07.op_class::SimdAesMix                   0                       # Class of executed instruction
system.cpu07.op_class::SimdSha1Hash                 0                       # Class of executed instruction
system.cpu07.op_class::SimdSha1Hash2                0                       # Class of executed instruction
system.cpu07.op_class::SimdSha256Hash               0                       # Class of executed instruction
system.cpu07.op_class::SimdSha256Hash2              0                       # Class of executed instruction
system.cpu07.op_class::SimdShaSigma2                0                       # Class of executed instruction
system.cpu07.op_class::SimdShaSigma3                0                       # Class of executed instruction
system.cpu07.op_class::SimdPredAlu                  0                       # Class of executed instruction
system.cpu07.op_class::MemRead                      0                       # Class of executed instruction
system.cpu07.op_class::MemWrite                     0                       # Class of executed instruction
system.cpu07.op_class::FloatMemRead                 0                       # Class of executed instruction
system.cpu07.op_class::FloatMemWrite                0                       # Class of executed instruction
system.cpu07.op_class::IprAccess                    0                       # Class of executed instruction
system.cpu07.op_class::InstPrefetch                 0                       # Class of executed instruction
system.cpu07.op_class::total                        0                       # Class of executed instruction
system.cpu08.committedInsts                         0                       # Number of instructions committed
system.cpu08.committedOps                           0                       # Number of ops (including micro ops) committed
system.cpu08.dtb.rdAccesses                         0                       # TLB accesses on read requests
system.cpu08.dtb.rdMisses                           0                       # TLB misses on read requests
system.cpu08.dtb.wrAccesses                         0                       # TLB accesses on write requests
system.cpu08.dtb.wrMisses                           0                       # TLB misses on write requests
system.cpu08.idle_fraction                          1                       # Percentage of idle cycles
[...]
system.mem_ctrls15.bw_write::.ruby.dir_cntrl15     42486470                       # Write bandwidth from this memory (bytes/s)
system.mem_ctrls15.bw_write::total           42486470                       # Write bandwidth from this memory (bytes/s)
system.mem_ctrls15.bw_total::.ruby.dir_cntrl15     91447069                       # Total bandwidth to/from this memory (bytes/s)
system.mem_ctrls15.bw_total::total           91447069                       # Total bandwidth to/from this memory (bytes/s)
system.mem_ctrls15.power_state.pwrStateResidencyTicks::UNDEFINED    158168000                       # Cumulative time (in ticks) in various power states
system.mem_ctrls8.bytes_read::.ruby.dir_cntrl8         6080                       # Number of bytes read from this memory
system.mem_ctrls8.bytes_read::total              6080                       # Number of bytes read from this memory
system.mem_ctrls8.bytes_written::.ruby.dir_cntrl8         5056                       # Number of bytes written to this memory
system.mem_ctrls8.bytes_written::total           5056                       # Number of bytes written to this memory
system.mem_ctrls8.num_reads::.ruby.dir_cntrl8           95                       # Number of read requests responded to by this memory
system.mem_ctrls8.num_reads::total                 95                       # Number of read requests responded to by this memory
system.mem_ctrls8.num_writes::.ruby.dir_cntrl8           79                       # Number of write requests responded to by this memory
system.mem_ctrls8.num_writes::total                79                       # Number of write requests responded to by this memory
system.mem_ctrls8.bw_read::.ruby.dir_cntrl8     38440140                       # Total read bandwidth from this memory (bytes/s)
system.mem_ctrls8.bw_read::total             38440140                       # Total read bandwidth from this memory (bytes/s)
system.mem_ctrls8.bw_write::.ruby.dir_cntrl8     31966011                       # Write bandwidth from this memory (bytes/s)
system.mem_ctrls8.bw_write::total            31966011                       # Write bandwidth from this memory (bytes/s)
system.mem_ctrls8.bw_total::.ruby.dir_cntrl8     70406150                       # Total bandwidth to/from this memory (bytes/s)
system.mem_ctrls8.bw_total::total            70406150                       # Total bandwidth to/from this memory (bytes/s)
system.mem_ctrls8.power_state.pwrStateResidencyTicks::UNDEFINED    158168000                       # Cumulative time (in ticks) in various power states
system.mem_ctrls9.bytes_read::.ruby.dir_cntrl9         7360                       # Number of bytes read from this memory
system.mem_ctrls9.bytes_read::total              7360                       # Number of bytes read from this memory
system.mem_ctrls9.bytes_written::.ruby.dir_cntrl9         6336                       # Number of bytes written to this memory
system.mem_ctrls9.bytes_written::total           6336                       # Number of bytes written to this memory
system.mem_ctrls9.num_reads::.ruby.dir_cntrl9          115                       # Number of read requests responded to by this memory
system.mem_ctrls9.num_reads::total                115                       # Number of read requests responded to by this memory
system.mem_ctrls9.num_writes::.ruby.dir_cntrl9           99                       # Number of write requests responded to by this memory
system.mem_ctrls9.num_writes::total                99                       # Number of write requests responded to by this memory
system.mem_ctrls9.bw_read::.ruby.dir_cntrl9     46532801                       # Total read bandwidth from this memory (bytes/s)
system.mem_ctrls9.bw_read::total             46532801                       # Total read bandwidth from this memory (bytes/s)
system.mem_ctrls9.bw_write::.ruby.dir_cntrl9     40058672                       # Write bandwidth from this memory (bytes/s)
system.mem_ctrls9.bw_write::total            40058672                       # Write bandwidth from this memory (bytes/s)
system.mem_ctrls9.bw_total::.ruby.dir_cntrl9     86591472                       # Total bandwidth to/from this memory (bytes/s)
system.mem_ctrls9.bw_total::total            86591472                       # Total bandwidth to/from this memory (bytes/s)
system.mem_ctrls9.power_state.pwrStateResidencyTicks::UNDEFINED    158168000                       # Cumulative time (in ticks) in various power states
system.mem_ctrls2.bytes_read::.ruby.dir_cntrl2         8576                       # Number of bytes read from this memory
system.mem_ctrls2.bytes_read::total              8576                       # Number of bytes read from this memory
system.mem_ctrls2.bytes_written::.ruby.dir_cntrl2         7552                       # Number of bytes written to this memory
system.mem_ctrls2.bytes_written::total           7552                       # Number of bytes written to this memory
system.mem_ctrls2.num_reads::.ruby.dir_cntrl2          134                       # Number of read requests responded to by this memory
system.mem_ctrls2.num_reads::total                134                       # Number of read requests responded to by this memory
system.mem_ctrls2.num_writes::.ruby.dir_cntrl2          118                       # Number of write requests responded to by this memory
system.mem_ctrls2.num_writes::total               118                       # Number of write requests responded to by this memory
system.mem_ctrls2.bw_read::.ruby.dir_cntrl2     54220828                       # Total read bandwidth from this memory (bytes/s)
system.mem_ctrls2.bw_read::total             54220828                       # Total read bandwidth from this memory (bytes/s)
system.mem_ctrls2.bw_write::.ruby.dir_cntrl2     47746700                       # Write bandwidth from this memory (bytes/s)
system.mem_ctrls2.bw_write::total            47746700                       # Write bandwidth from this memory (bytes/s)
system.mem_ctrls2.bw_total::.ruby.dir_cntrl2    101967528                       # Total bandwidth to/from this memory (bytes/s)
system.mem_ctrls2.bw_total::total           101967528                       # Total bandwidth to/from this memory (bytes/s)
system.mem_ctrls2.power_state.pwrStateResidencyTicks::UNDEFINED    158168000                       # Cumulative time (in ticks) in various power states
system.mem_ctrls3.bytes_read::.ruby.dir_cntrl3         7808                       # Number of bytes read from this memory
system.mem_ctrls3.bytes_read::total              7808                       # Number of bytes read from this memory
system.mem_ctrls3.bytes_written::.ruby.dir_cntrl3         6784                       # Number of bytes written to this memory
system.mem_ctrls3.bytes_written::total           6784                       # Number of bytes written to this memory
system.mem_ctrls3.num_reads::.ruby.dir_cntrl3          122                       # Number of read requests responded to by this memory
system.mem_ctrls3.num_reads::total                122                       # Number of read requests responded to by this memory
system.mem_ctrls3.num_writes::.ruby.dir_cntrl3          106                       # Number of write requests responded to by this memory
system.mem_ctrls3.num_writes::total               106                       # Number of write requests responded to by this memory
system.mem_ctrls3.bw_read::.ruby.dir_cntrl3     49365232                       # Total read bandwidth from this memory (bytes/s)
system.mem_ctrls3.bw_read::total             49365232                       # Total read bandwidth from this memory (bytes/s)
system.mem_ctrls3.bw_write::.ruby.dir_cntrl3     42891103                       # Write bandwidth from this memory (bytes/s)
system.mem_ctrls3.bw_write::total            42891103                       # Write bandwidth from this memory (bytes/s)
system.mem_ctrls3.bw_total::.ruby.dir_cntrl3     92256335                       # Total bandwidth to/from this memory (bytes/s)
system.mem_ctrls3.bw_total::total            92256335                       # Total bandwidth to/from this memory (bytes/s)
system.mem_ctrls3.power_state.pwrStateResidencyTicks::UNDEFINED    158168000                       # Cumulative time (in ticks) in various power states
system.mem_ctrls0.bytes_read::.ruby.dir_cntrl0         7360                       # Number of bytes read from this memory
system.mem_ctrls0.bytes_read::total              7360                       # Number of bytes read from this memory
system.mem_ctrls0.bytes_written::.ruby.dir_cntrl0         6336                       # Number of bytes written to this memory
system.mem_ctrls0.bytes_written::total           6336                       # Number of bytes written to this memory
system.mem_ctrls0.num_reads::.ruby.dir_cntrl0          115                       # Number of read requests responded to by this memory
system.mem_ctrls0.num_reads::total                115                       # Number of read requests responded to by this memory
system.mem_ctrls0.num_writes::.ruby.dir_cntrl0           99                       # Number of write requests responded to by this memory
system.mem_ctrls0.num_writes::total                99                       # Number of write requests responded to by this memory
system.mem_ctrls0.bw_read::.ruby.dir_cntrl0     46532801                       # Total read bandwidth from this memory (bytes/s)
system.mem_ctrls0.bw_read::total             46532801                       # Total read bandwidth from this memory (bytes/s)
system.mem_ctrls0.bw_write::.ruby.dir_cntrl0     40058672                       # Write bandwidth from this memory (bytes/s)
system.mem_ctrls0.bw_write::total            40058672                       # Write bandwidth from this memory (bytes/s)
system.mem_ctrls0.bw_total::.ruby.dir_cntrl0     86591472                       # Total bandwidth to/from this memory (bytes/s)
system.mem_ctrls0.bw_total::total            86591472                       # Total bandwidth to/from this memory (bytes/s)
system.mem_ctrls0.power_state.pwrStateResidencyTicks::UNDEFINED    158168000                       # Cumulative time (in ticks) in various power states
system.mem_ctrls1.bytes_read::.ruby.dir_cntrl1         5440                       # Number of bytes read from this memory
system.mem_ctrls1.bytes_read::total              5440                       # Number of bytes read from this memory
system.mem_ctrls1.bytes_written::.ruby.dir_cntrl1         4416                       # Number of bytes written to this memory
system.mem_ctrls1.bytes_written::total           4416                       # Number of bytes written to this memory
system.mem_ctrls1.num_reads::.ruby.dir_cntrl1           85                       # Number of read requests responded to by this memory
system.mem_ctrls1.num_reads::total                 85                       # Number of read requests responded to by this memory
system.mem_ctrls1.num_writes::.ruby.dir_cntrl1           69                       # Number of write requests responded to by this memory
system.mem_ctrls1.num_writes::total                69                       # Number of write requests responded to by this memory
system.mem_ctrls1.bw_read::.ruby.dir_cntrl1     34393809                       # Total read bandwidth from this memory (bytes/s)
system.mem_ctrls1.bw_read::total             34393809                       # Total read bandwidth from this memory (bytes/s)
system.mem_ctrls1.bw_write::.ruby.dir_cntrl1     27919680                       # Write bandwidth from this memory (bytes/s)
system.mem_ctrls1.bw_write::total            27919680                       # Write bandwidth from this memory (bytes/s)
system.mem_ctrls1.bw_total::.ruby.dir_cntrl1     62313489                       # Total bandwidth to/from this memory (bytes/s)
system.mem_ctrls1.bw_total::total            62313489                       # Total bandwidth to/from this memory (bytes/s)
system.mem_ctrls1.power_state.pwrStateResidencyTicks::UNDEFINED    158168000                       # Cumulative time (in ticks) in various power states
system.mem_ctrls6.bytes_read::.ruby.dir_cntrl6         6272                       # Number of bytes read from this memory
system.mem_ctrls6.bytes_read::total              6272                       # Number of bytes read from this memory
system.mem_ctrls6.bytes_written::.ruby.dir_cntrl6         5248                       # Number of bytes written to this memory
system.mem_ctrls6.bytes_written::total           5248                       # Number of bytes written to this memory
system.mem_ctrls6.num_reads::.ruby.dir_cntrl6           98                       # Number of read requests responded to by this memory
system.mem_ctrls6.num_reads::total                 98                       # Number of read requests responded to by this memory
system.mem_ctrls6.num_writes::.ruby.dir_cntrl6           82                       # Number of write requests responded to by this memory
system.mem_ctrls6.num_writes::total                82                       # Number of write requests responded to by this memory
system.mem_ctrls6.bw_read::.ruby.dir_cntrl6     39654039                       # Total read bandwidth from this memory (bytes/s)
system.mem_ctrls6.bw_read::total             39654039                       # Total read bandwidth from this memory (bytes/s)
system.mem_ctrls6.bw_write::.ruby.dir_cntrl6     33179910                       # Write bandwidth from this memory (bytes/s)
system.mem_ctrls6.bw_write::total            33179910                       # Write bandwidth from this memory (bytes/s)
system.mem_ctrls6.bw_total::.ruby.dir_cntrl6     72833949                       # Total bandwidth to/from this memory (bytes/s)
system.mem_ctrls6.bw_total::total            72833949                       # Total bandwidth to/from this memory (bytes/s)
system.mem_ctrls6.power_state.pwrStateResidencyTicks::UNDEFINED    158168000                       # Cumulative time (in ticks) in various power states
system.mem_ctrls7.bytes_read::.ruby.dir_cntrl7         6336                       # Number of bytes read from this memory
system.mem_ctrls7.bytes_read::total              6336                       # Number of bytes read from this memory
system.mem_ctrls7.bytes_written::.ruby.dir_cntrl7         5312                       # Number of bytes written to this memory
system.mem_ctrls7.bytes_written::total           5312                       # Number of bytes written to this memory
system.mem_ctrls7.num_reads::.ruby.dir_cntrl7           99                       # Number of read requests responded to by this memory
system.mem_ctrls7.num_reads::total                 99                       # Number of read requests responded to by this memory
system.mem_ctrls7.num_writes::.ruby.dir_cntrl7           83                       # Number of write requests responded to by this memory
system.mem_ctrls7.num_writes::total                83                       # Number of write requests responded to by this memory
system.mem_ctrls7.bw_read::.ruby.dir_cntrl7     40058672                       # Total read bandwidth from this memory (bytes/s)
system.mem_ctrls7.bw_read::total             40058672                       # Total read bandwidth from this memory (bytes/s)
system.mem_ctrls7.bw_write::.ruby.dir_cntrl7     33584543                       # Write bandwidth from this memory (bytes/s)
system.mem_ctrls7.bw_write::total            33584543                       # Write bandwidth from this memory (bytes/s)
system.mem_ctrls7.bw_total::.ruby.dir_cntrl7     73643215                       # Total bandwidth to/from this memory (bytes/s)
system.mem_ctrls7.bw_total::total            73643215                       # Total bandwidth to/from this memory (bytes/s)
system.mem_ctrls7.power_state.pwrStateResidencyTicks::UNDEFINED    158168000                       # Cumulative time (in ticks) in various power states
system.mem_ctrls4.bytes_read::.ruby.dir_cntrl4         7872                       # Number of bytes read from this memory
system.mem_ctrls4.bytes_read::total              7872                       # Number of bytes read from this memory
system.mem_ctrls4.bytes_written::.ruby.dir_cntrl4         6848                       # Number of bytes written to this memory
system.mem_ctrls4.bytes_written::total           6848                       # Number of bytes written to this memory
system.mem_ctrls4.num_reads::.ruby.dir_cntrl4          123                       # Number of read requests responded to by this memory
system.mem_ctrls4.num_reads::total                123                       # Number of read requests responded to by this memory
system.mem_ctrls4.num_writes::.ruby.dir_cntrl4          107                       # Number of write requests responded to by this memory
system.mem_ctrls4.num_writes::total               107                       # Number of write requests responded to by this memory
system.mem_ctrls4.bw_read::.ruby.dir_cntrl4     49769865                       # Total read bandwidth from this memory (bytes/s)
system.mem_ctrls4.bw_read::total             49769865                       # Total read bandwidth from this memory (bytes/s)
system.mem_ctrls4.bw_write::.ruby.dir_cntrl4     43295736                       # Write bandwidth from this memory (bytes/s)
system.mem_ctrls4.bw_write::total            43295736                       # Write bandwidth from this memory (bytes/s)
system.mem_ctrls4.bw_total::.ruby.dir_cntrl4     93065601                       # Total bandwidth to/from this memory (bytes/s)
system.mem_ctrls4.bw_total::total            93065601                       # Total bandwidth to/from this memory (bytes/s)
system.mem_ctrls4.power_state.pwrStateResidencyTicks::UNDEFINED    158168000                       # Cumulative time (in ticks) in various power states
system.mem_ctrls5.bytes_read::.ruby.dir_cntrl5         7936                       # Number of bytes read from this memory
system.mem_ctrls5.bytes_read::total              7936                       # Number of bytes read from this memory
system.mem_ctrls5.bytes_written::.ruby.dir_cntrl5         6912                       # Number of bytes written to this memory
system.mem_ctrls5.bytes_written::total           6912                       # Number of bytes written to this memory
system.mem_ctrls5.num_reads::.ruby.dir_cntrl5          124                       # Number of read requests responded to by this memory
system.mem_ctrls5.num_reads::total                124                       # Number of read requests responded to by this memory
system.mem_ctrls5.num_writes::.ruby.dir_cntrl5          108                       # Number of write requests responded to by this memory
system.mem_ctrls5.num_writes::total               108                       # Number of write requests responded to by this memory
system.mem_ctrls5.bw_read::.ruby.dir_cntrl5     50174498                       # Total read bandwidth from this memory (bytes/s)
system.mem_ctrls5.bw_read::total             50174498                       # Total read bandwidth from this memory (bytes/s)
system.mem_ctrls5.bw_write::.ruby.dir_cntrl5     43700369                       # Write bandwidth from this memory (bytes/s)
system.mem_ctrls5.bw_write::total            43700369                       # Write bandwidth from this memory (bytes/s)
system.mem_ctrls5.bw_total::.ruby.dir_cntrl5     93874867                       # Total bandwidth to/from this memory (bytes/s)
system.mem_ctrls5.bw_total::total            93874867                       # Total bandwidth to/from this memory (bytes/s)
system.mem_ctrls5.power_state.pwrStateResidencyTicks::UNDEFINED    158168000                       # Cumulative time (in ticks) in various power states
system.cpu_voltage_domain.voltage                   1                       # Voltage in Volts

---------- End Simulation Statistics   ----------
