
---------- Begin Simulation Statistics ----------
final_tick                               260255315000                       # Number of ticks from beginning of simulation (restored from checkpoints and never reset)
host_inst_rate                                  33075                       # Simulator instruction rate (inst/s)
host_mem_usage                                5045372                       # Number of bytes of host memory used
host_op_rate                                    49950                       # Simulator op (including micro ops) rate (op/s)
host_seconds                                  1421.39                       # Real time elapsed on the host
host_tick_rate                              183099006                       # Simulator tick rate (ticks/s)
sim_freq                                 1000000000000                       # Frequency of simulated ticks
sim_insts                                    47013089                       # Number of instructions simulated
sim_ops                                      70998818                       # Number of ops (including micro ops) simulated
sim_seconds                                  0.260255                       # Number of seconds simulated
sim_ticks                                260255315000                       # Number of ticks simulated
system.cpu00.Branches                          516111                       # Number of branches fetched
system.cpu00.committedInsts                  47013089                       # Number of instructions committed
system.cpu00.committedOps                    70998818                       # Number of ops (including micro ops) committed
system.cpu00.dtb.rdAccesses                   4670848                       # TLB accesses on read requests
system.cpu00.dtb.rdMisses                        3443                       # TLB misses on read requests
system.cpu00.dtb.wrAccesses                   2660190                       # TLB accesses on write requests
system.cpu00.dtb.wrMisses                      465539                       # TLB misses on write requests
system.cpu00.idle_fraction                   0.000000                       # Percentage of idle cycles
system.cpu00.itb.rdAccesses                         0                       # TLB accesses on read requests
system.cpu00.itb.rdMisses                           0                       # TLB misses on read requests
system.cpu00.itb.wrAccesses                  68437594                       # TLB accesses on write requests
system.cpu00.itb.wrMisses                         245                       # TLB misses on write requests
system.cpu00.not_idle_fraction               1.000000                       # Percentage of non-idle cycles
system.cpu00.numCycles                      520510630                       # number of cpu cycles simulated
system.cpu00.numWorkItemsCompleted                  0                       # number of work items this cpu completed
system.cpu00.numWorkItemsStarted                    0                       # number of work items this cpu started
system.cpu00.num_busy_cycles             520510629.998000                       # Number of busy cycles
system.cpu00.num_cc_register_reads            5767403                       # number of times the CC registers were read
system.cpu00.num_cc_register_writes          12277962                       # number of times the CC registers were written
system.cpu00.num_conditional_control_insts       509994                       # number of instructions that are conditional controls
system.cpu00.num_fp_alu_accesses             51670547                       # Number of float alu accesses
system.cpu00.num_fp_insts                    51670547                       # number of float instructions
system.cpu00.num_fp_register_reads          114325849                       # number of times the floating registers were read
system.cpu00.num_fp_register_writes          48252944                       # number of times the floating registers were written
system.cpu00.num_func_calls                      3321                       # number of times a function call or return occured
system.cpu00.num_idle_cycles                 0.002000                       # Number of idle cycles
system.cpu00.num_int_alu_accesses            26161005                       # Number of integer alu accesses
system.cpu00.num_int_insts                   26161005                       # number of integer instructions
system.cpu00.num_int_register_reads          53081879                       # number of times the integer registers were read
system.cpu00.num_int_register_writes         19573235                       # number of times the integer registers were written
system.cpu00.num_load_insts                   4670835                       # Number of load instructions
system.cpu00.num_mem_refs                     7331013                       # number of memory refs
system.cpu00.num_store_insts                  2660178                       # Number of store instructions
system.cpu00.num_vec_alu_accesses                   0                       # Number of vector alu accesses
system.cpu00.num_vec_insts                          0                       # number of vector instructions
system.cpu00.num_vec_register_reads                 0                       # number of times the vector registers were read
system.cpu00.num_vec_register_writes                0                       # number of times the vector registers were written
system.cpu00.op_class::No_OpClass                3232      0.00%      0.00% # Class of executed instruction
system.cpu00.op_class::IntAlu                25380810     35.75%     35.75% # Class of executed instruction
system.cpu00.op_class::IntMult                    152      0.00%     35.75% # Class of executed instruction
system.cpu00.op_class::IntDiv                    2137      0.00%     35.76% # Class of executed instruction
system.cpu00.op_class::FloatAdd                   335      0.00%     35.76% # Class of executed instruction
system.cpu00.op_class::FloatCmp                     0      0.00%     35.76% # Class of executed instruction
system.cpu00.op_class::FloatCvt                    96      0.00%     35.76% # Class of executed instruction
system.cpu00.op_class::FloatMult                    0      0.00%     35.76% # Class of executed instruction
system.cpu00.op_class::FloatMultAcc                 0      0.00%     35.76% # Class of executed instruction
system.cpu00.op_class::FloatDiv                     0      0.00%     35.76% # Class of executed instruction
system.cpu00.op_class::FloatMisc                    0      0.00%     35.76% # Class of executed instruction
system.cpu00.op_class::FloatSqrt                    0      0.00%     35.76% # Class of executed instruction
system.cpu00.op_class::SimdAdd                   1560      0.00%     35.76% # Class of executed instruction
system.cpu00.op_class::SimdAddAcc                   0      0.00%     35.76% # Class of executed instruction
system.cpu00.op_class::SimdAlu                6817893      9.60%     45.36% # Class of executed instruction
system.cpu00.op_class::SimdCmp                      0      0.00%     45.36% # Class of executed instruction
system.cpu00.op_class::SimdCvt                   2766      0.00%     45.36% # Class of executed instruction
system.cpu00.op_class::SimdMisc               6555499      9.23%     54.60% # Class of executed instruction
system.cpu00.op_class::SimdMult                     0      0.00%     54.60% # Class of executed instruction
system.cpu00.op_class::SimdMultAcc                  0      0.00%     54.60% # Class of executed instruction
system.cpu00.op_class::SimdShift                  704      0.00%     54.60% # Class of executed instruction
system.cpu00.op_class::SimdShiftAcc                 0      0.00%     54.60% # Class of executed instruction
system.cpu00.op_class::SimdDiv                      0      0.00%     54.60% # Class of executed instruction
system.cpu00.op_class::SimdSqrt                     0      0.00%     54.60% # Class of executed instruction
system.cpu00.op_class::SimdFloatAdd           6029328      8.49%     63.09% # Class of executed instruction
system.cpu00.op_class::SimdFloatAlu                 0      0.00%     63.09% # Class of executed instruction
system.cpu00.op_class::SimdFloatCmp                 0      0.00%     63.09% # Class of executed instruction
system.cpu00.op_class::SimdFloatCvt           6815769      9.60%     72.69% # Class of executed instruction
system.cpu00.op_class::SimdFloatDiv                 0      0.00%     72.69% # Class of executed instruction
system.cpu00.op_class::SimdFloatMisc                0      0.00%     72.69% # Class of executed instruction
system.cpu00.op_class::SimdFloatMult         12058644     16.98%     89.67% # Class of executed instruction
system.cpu00.op_class::SimdFloatMultAcc             0      0.00%     89.67% # Class of executed instruction
system.cpu00.op_class::SimdFloatSqrt                0      0.00%     89.67% # Class of executed instruction
system.cpu00.op_class::SimdReduceAdd                0      0.00%     89.67% # Class of executed instruction
system.cpu00.op_class::SimdReduceAlu                0      0.00%     89.67% # Class of executed instruction
system.cpu00.op_class::SimdReduceCmp                0      0.00%     89.67% # Class of executed instruction
system.cpu00.op_class::SimdFloatReduceAdd            0      0.00%     89.67% # Class of executed instruction
system.cpu00.op_class::SimdFloatReduceCmp            0      0.00%     89.67% # Class of executed instruction
system.cpu00.op_class::SimdAes                      0      0.00%     89.67% # Class of executed instruction
system.cpu00.op_class::SimdAesMix                   0      0.00%     89.67% # Class of executed instruction
system.cpu00.op_class::SimdSha1Hash                 0      0.00%     89.67% # Class of executed instruction
system.cpu00.op_class::SimdSha1Hash2                0      0.00%     89.67% # Class of executed instruction
system.cpu00.op_class::SimdSha256Hash               0      0.00%     89.67% # Class of executed instruction
system.cpu00.op_class::SimdSha256Hash2              0      0.00%     89.67% # Class of executed instruction
system.cpu00.op_class::SimdShaSigma2                0      0.00%     89.67% # Class of executed instruction
system.cpu00.op_class::SimdShaSigma3                0      0.00%     89.67% # Class of executed instruction
system.cpu00.op_class::SimdPredAlu                  0      0.00%     89.67% # Class of executed instruction
system.cpu00.op_class::MemRead                4399088      6.20%     95.87% # Class of executed instruction
system.cpu00.op_class::MemWrite               2652000      3.74%     99.61% # Class of executed instruction
system.cpu00.op_class::FloatMemRead            271747      0.38%     99.99% # Class of executed instruction
system.cpu00.op_class::FloatMemWrite             8178      0.01%    100.00% # Class of executed instruction
system.cpu00.op_class::IprAccess                    0      0.00%    100.00% # Class of executed instruction
system.cpu00.op_class::InstPrefetch                 0      0.00%    100.00% # Class of executed instruction
system.cpu00.op_class::total                 70999938                       # Class of executed instruction
system.cpu00.workload.numSyscalls                  83                       # Number of system calls
system.cpu01.committedInsts                         0                       # Number of instructions committed
system.cpu01.committedOps                           0                       # Number of ops (including micro ops) committed
system.cpu01.dtb.rdAccesses                         0                       # TLB accesses on read requests
system.cpu01.dtb.rdMisses                           0                       # TLB misses on read requests
system.cpu01.dtb.wrAccesses                         0                       # TLB accesses on write requests
system.cpu01.dtb.wrMisses                           0                       # TLB misses on write requests
system.cpu01.idle_fraction                          1                       # Percentage of idle cycles
system.cpu01.itb.rdAccesses                         0                       # TLB accesses on read requests
system.cpu01.itb.rdMisses                           0                       # TLB misses on read requests
system.cpu01.itb.wrAccesses                         0                       # TLB accesses on write requests
system.cpu01.itb.wrMisses                           0                       # TLB misses on write requests
system.cpu01.not_idle_fraction                      0                       # Percentage of non-idle cycles
system.cpu01.numCycles                              0                       # number of cpu cycles simulated
system.cpu01.numWorkItemsCompleted                  0                       # number of work items this cpu completed
system.cpu01.numWorkItemsStarted                    0                       # number of work items this cpu started
system.cpu01.num_busy_cycles                        0                       # Number of busy cycles
system.cpu01.num_conditional_control_insts            0                       # number of instructions that are conditional controls
system.cpu01.num_fp_alu_accesses                    0                       # Number of float alu accesses
system.cpu01.num_fp_insts                           0                       # number of float instructions
system.cpu01.num_fp_register_reads                  0                       # number of times the floating registers were read
system.cpu01.num_fp_register_writes                 0                       # number of times the floating registers were written
system.cpu01.num_func_calls                         0                       # number of times a function call or return occured
system.cpu01.num_idle_cycles                        0                       # Number of idle cycles
system.cpu01.num_int_alu_accesses                   0                       # Number of integer alu accesses
system.cpu01.num_int_insts                          0                       # number of integer instructions
system.cpu01.num_int_register_reads                 0                       # number of times the integer registers were read
system.cpu01.num_int_register_writes                0                       # number of times the integer registers were written
system.cpu01.num_load_insts                         0                       # Number of load instructions
system.cpu01.num_mem_refs                           0                       # number of memory refs
system.cpu01.num_store_insts                        0                       # Number of store instructions
system.cpu01.num_vec_alu_accesses                   0                       # Number of vector alu accesses
system.cpu01.num_vec_insts                          0                       # number of vector instructions
system.cpu01.num_vec_register_reads                 0                       # number of times the vector registers were read
system.cpu01.num_vec_register_writes                0                       # number of times the vector registers were written
system.cpu01.op_class::No_OpClass                   0                       # Class of executed instruction
system.cpu01.op_class::IntAlu                       0                       # Class of executed instruction
system.cpu01.op_class::IntMult                      0                       # Class of executed instruction
system.cpu01.op_class::IntDiv                       0                       # Class of executed instruction
system.cpu01.op_class::FloatAdd                     0                       # Class of executed instruction
system.cpu01.op_class::FloatCmp                     0                       # Class of executed instruction
system.cpu01.op_class::FloatCvt                     0                       # Class of executed instruction
system.cpu01.op_class::FloatMult                    0                       # Class of executed instruction
system.cpu01.op_class::FloatMultAcc                 0                       # Class of executed instruction
system.cpu01.op_class::FloatDiv                     0                       # Class of executed instruction
system.cpu01.op_class::FloatMisc                    0                       # Class of executed instruction
system.cpu01.op_class::FloatSqrt                    0                       # Class of executed instruction
system.cpu01.op_class::SimdAdd                      0                       # Class of executed instruction
system.cpu01.op_class::SimdAddAcc                   0                       # Class of executed instruction
system.cpu01.op_class::SimdAlu                      0                       # Class of executed instruction
system.cpu01.op_class::SimdCmp                      0                       # Class of executed instruction
system.cpu01.op_class::SimdCvt                      0                       # Class of executed instruction
system.cpu01.op_class::SimdMisc                     0                       # Class of executed instruction
system.cpu01.op_class::SimdMult                     0                       # Class of executed instruction
system.cpu01.op_class::SimdMultAcc                  0                       # Class of executed instruction
system.cpu01.op_class::SimdShift                    0                       # Class of executed instruction
system.cpu01.op_class::SimdShiftAcc                 0                       # Class of executed instruction
system.cpu01.op_class::SimdDiv                      0                       # Class of executed instruction
system.cpu01.op_class::SimdSqrt                     0                       # Class of executed instruction
system.cpu01.op_class::SimdFloatAdd                 0                       # Class of executed instruction
system.cpu01.op_class::SimdFloatAlu                 0                       # Class of executed instruction
system.cpu01.op_class::SimdFloatCmp                 0                       # Class of executed instruction
system.cpu01.op_class::SimdFloatCvt                 0                       # Class of executed instruction
system.cpu01.op_class::SimdFloatDiv                 0                       # Class of executed instruction
system.cpu01.op_class::SimdFloatMisc                0                       # Class of executed instruction
system.cpu01.op_class::SimdFloatMult                0                       # Class of executed instruction
system.cpu01.op_class::SimdFloatMultAcc             0                       # Class of executed instruction
system.cpu01.op_class::SimdFloatSqrt                0                       # Class of executed instruction
system.cpu01.op_class::SimdReduceAdd                0                       # Class of executed instruction
system.cpu01.op_class::SimdReduceAlu                0                       # Class of executed instruction
system.cpu01.op_class::SimdReduceCmp                0                       # Class of executed instruction
system.cpu01.op_class::SimdFloatReduceAdd            0                       # Class of executed instruction
system.cpu01.op_class::SimdFloatReduceCmp            0                       # Class of executed instruction
system.cpu01.op_class::SimdAes                      0                       # Class of executed instruction
system.cpu01.op_class::SimdAesMix                   0                       # Class of executed instruction
system.cpu01.op_class::SimdSha1Hash                 0                       # Class of executed instruction
system.cpu01.op_class::SimdSha1Hash2                0                       # Class of executed instruction
system.cpu01.op_class::SimdSha256Hash               0                       # Class of executed instruction
system.cpu01.op_class::SimdSha256Hash2              0                       # Class of executed instruction
system.cpu01.op_class::SimdShaSigma2                0                       # Class of executed instruction
system.cpu01.op_class::SimdShaSigma3                0                       # Class of executed instruction
system.cpu01.op_class::SimdPredAlu                  0                       # Class of executed instruction
system.cpu01.op_class::MemRead                      0                       # Class of executed instruction
system.cpu01.op_class::MemWrite                     0                       # Class of executed instruction
system.cpu01.op_class::FloatMemRead                 0                       # Class of executed instruction
system.cpu01.op_class::FloatMemWrite                0                       # Class of executed instruction
system.cpu01.op_class::IprAccess                    0                       # Class of executed instruction
system.cpu01.op_class::InstPrefetch                 0                       # Class of executed instruction
system.cpu01.op_class::total                        0                       # Class of executed instruction
system.cpu02.committedInsts                         0                       # Number of instructions committed
system.cpu02.committedOps                           0                       # Number of ops (including micro ops) committed
system.cpu02.dtb.rdAccesses                         0                       # TLB accesses on read requests
system.cpu02.dtb.rdMisses                           0                       # TLB misses on read requests
system.cpu02.dtb.wrAccesses                         0                       # TLB accesses on write requests
system.cpu02.dtb.wrMisses                           0                       # TLB misses on write requests
system.cpu02.idle_fraction                          1                       # Percentage of idle cycles
system.cpu02.itb.rdAccesses                         0                       # TLB accesses on read requests
system.cpu02.itb.rdMisses                           0                       # TLB misses on read requests
system.cpu02.itb.wrAccesses                         0                       # TLB accesses on write requests
system.cpu02.itb.wrMisses                           0                       # TLB misses on write requests
system.cpu02.not_idle_fraction                      0                       # Percentage of non-idle cycles
system.cpu02.numCycles                              0                       # number of cpu cycles simulated
system.cpu02.numWorkItemsCompleted                  0                       # number of work items this cpu completed
system.cpu02.numWorkItemsStarted                    0                       # number of work items this cpu started
system.cpu02.num_busy_cycles                        0                       # Number of busy cycles
system.cpu02.num_conditional_control_insts            0                       # number of instructions that are conditional controls
system.cpu02.num_fp_alu_accesses                    0                       # Number of float alu accesses
system.cpu02.num_fp_insts                           0                       # number of float instructions
system.cpu02.num_fp_register_reads                  0                       # number of times the floating registers were read
system.cpu02.num_fp_register_writes                 0                       # number of times the floating registers were written
system.cpu02.num_func_calls                         0                       # number of times a function call or return occured
system.cpu02.num_idle_cycles                        0                       # Number of idle cycles
system.cpu02.num_int_alu_accesses                   0                       # Number of integer alu accesses
system.cpu02.num_int_insts                          0                       # number of integer instructions
system.cpu02.num_int_register_reads                 0                       # number of times the integer registers were read
system.cpu02.num_int_register_writes                0                       # number of times the integer registers were written
system.cpu02.num_load_insts                         0                       # Number of load instructions
system.cpu02.num_mem_refs                           0                       # number of memory refs
system.cpu02.num_store_insts                        0                       # Number of store instructions
system.cpu02.num_vec_alu_accesses                   0                       # Number of vector alu accesses
system.cpu02.num_vec_insts                          0                       # number of vector instructions
system.cpu02.num_vec_register_reads                 0                       # number of times the vector registers were read
system.cpu02.num_vec_register_writes                0                       # number of times the vector registers were written
system.cpu02.op_class::No_OpClass                   0                       # Class of executed instruction
system.cpu02.op_class::IntAlu                       0                       # Class of executed instruction
system.cpu02.op_class::IntMult                      0                       # Class of executed instruction
system.cpu02.op_class::IntDiv                       0                       # Class of executed instruction
system.cpu02.op_class::FloatAdd                     0                       # Class of executed instruction
system.cpu02.op_class::FloatCmp                     0                       # Class of executed instruction
system.cpu02.op_class::FloatCvt                     0                       # Class of executed instruction
system.cpu02.op_class::FloatMult                    0                       # Class of executed instruction
system.cpu02.op_class::FloatMultAcc                 0                       # Class of executed instruction
system.cpu02.op_class::FloatDiv                     0                       # Class of executed instruction
system.cpu02.op_class::FloatMisc                    0                       # Class of executed instruction
system.cpu02.op_class::FloatSqrt                    0                       # Class of executed instruction
system.cpu02.op_class::SimdAdd                      0                       # Class of executed instruction
system.cpu02.op_class::SimdAddAcc                   0                       # Class of executed instruction
system.cpu02.op_class::SimdAlu                      0                       # Class of executed instruction
system.cpu02.op_class::SimdCmp                      0                       # Class of executed instruction
system.cpu02.op_class::SimdCvt                      0                       # Class of executed instruction
system.cpu02.op_class::SimdMisc                     0                       # Class of executed instruction
system.cpu02.op_class::SimdMult                     0                       # Class of executed instruction
system.cpu02.op_class::SimdMultAcc                  0                       # Class of executed instruction
system.cpu02.op_class::SimdShift                    0                       # Class of executed instruction
system.cpu02.op_class::SimdShiftAcc                 0                       # Class of executed instruction
system.cpu02.op_class::SimdDiv                      0                       # Class of executed instruction
system.cpu02.op_class::SimdSqrt                     0                       # Class of executed instruction
system.cpu02.op_class::SimdFloatAdd                 0                       # Class of executed instruction
system.cpu02.op_class::SimdFloatAlu                 0                       # Class of executed instruction
system.cpu02.op_class::SimdFloatCmp                 0                       # Class of executed instruction
system.cpu02.op_class::SimdFloatCvt                 0                       # Class of executed instruction
system.cpu02.op_class::SimdFloatDiv                 0                       # Class of executed instruction
system.cpu02.op_class::SimdFloatMisc                0                       # Class of executed instruction
system.cpu02.op_class::SimdFloatMult                0                       # Class of executed instruction
system.cpu02.op_class::SimdFloatMultAcc             0                       # Class of executed instruction
system.cpu02.op_class::SimdFloatSqrt                0                       # Class of executed instruction
system.cpu02.op_class::SimdReduceAdd                0                       # Class of executed instruction
system.cpu02.op_class::SimdReduceAlu                0                       # Class of executed instruction
system.cpu02.op_class::SimdReduceCmp                0                       # Class of executed instruction
system.cpu02.op_class::SimdFloatReduceAdd            0                       # Class of executed instruction
system.cpu02.op_class::SimdFloatReduceCmp            0                       # Class of executed instruction
system.cpu02.op_class::SimdAes                      0                       # Class of executed instruction
system.cpu02.op_class::SimdAesMix                   0                       # Class of executed instruction
system.cpu02.op_class::SimdSha1Hash                 0                       # Class of executed instruction
system.cpu02.op_class::SimdSha1Hash2                0                       # Class of executed instruction
system.cpu02.op_class::SimdSha256Hash               0                       # Class of executed instruction
system.cpu02.op_class::SimdSha256Hash2              0                       # Class of executed instruction
system.cpu02.op_class::SimdShaSigma2                0                       # Class of executed instruction
system.cpu02.op_class::SimdShaSigma3                0                       # Class of executed instruction
system.cpu02.op_class::SimdPredAlu                  0                       # Class of executed instruction
system.cpu02.op_class::MemRead                      0                       # Class of executed instruction
system.cpu02.op_class::MemWrite                     0                       # Class of executed instruction
system.cpu02.op_class::FloatMemRead                 0                       # Class of executed instruction
system.cpu02.op_class::FloatMemWrite                0                       # Class of executed instruction
system.cpu02.op_class::IprAccess                    0                       # Class of executed instruction
system.cpu02.op_class::InstPrefetch                 0                       # Class of executed instruction
system.cpu02.op_class::total                        0                       # Class of executed instruction
system.cpu03.committedInsts                         0                       # Number of instructions committed
system.cpu03.committedOps                           0                       # Number of ops (including micro ops) committed
system.cpu03.dtb.rdAccesses                         0                       # TLB accesses on read requests
system.cpu03.dtb.rdMisses                           0                       # TLB misses on read requests
system.cpu03.dtb.wrAccesses                         0                       # TLB accesses on write requests
system.cpu03.dtb.wrMisses                           0                       # TLB misses on write requests
system.cpu03.idle_fraction                          1                       # Percentage of idle cycles
system.cpu03.itb.rdAccesses                         0                       # TLB accesses on read requests
system.cpu03.itb.rdMisses                           0                       # TLB misses on read requests
system.cpu03.itb.wrAccesses                         0                       # TLB accesses on write requests
system.cpu03.itb.wrMisses                           0                       # TLB misses on write requests
system.cpu03.not_idle_fraction                      0                       # Percentage of non-idle cycles
system.cpu03.numCycles                              0                       # number of cpu cycles simulated
system.cpu03.numWorkItemsCompleted                  0                       # number of work items this cpu completed
system.cpu03.numWorkItemsStarted                    0                       # number of work items this cpu started
system.cpu03.num_busy_cycles                        0                       # Number of busy cycles
system.cpu03.num_conditional_control_insts            0                       # number of instructions that are conditional controls
system.cpu03.num_fp_alu_accesses                    0                       # Number of float alu accesses
system.cpu03.num_fp_insts                           0                       # number of float instructions
system.cpu03.num_fp_register_reads                  0                       # number of times the floating registers were read
system.cpu03.num_fp_register_writes                 0                       # number of times the floating registers were written
system.cpu03.num_func_calls                         0                       # number of times a function call or return occured
system.cpu03.num_idle_cycles                        0                       # Number of idle cycles
system.cpu03.num_int_alu_accesses                   0                       # Number of integer alu accesses
system.cpu03.num_int_insts                          0                       # number of integer instructions
system.cpu03.num_int_register_reads                 0                       # number of times the integer registers were read
system.cpu03.num_int_register_writes                0                       # number of times the integer registers were written
system.cpu03.num_load_insts                         0                       # Number of load instructions
system.cpu03.num_mem_refs                           0                       # number of memory refs
system.cpu03.num_store_insts                        0                       # Number of store instructions
system.cpu03.num_vec_alu_accesses                   0                       # Number of vector alu accesses
system.cpu03.num_vec_insts                          0                       # number of vector instructions
system.cpu03.num_vec_register_reads                 0                       # number of times the vector registers were read
system.cpu03.num_vec_register_writes                0                       # number of times the vector registers were written
system.cpu03.op_class::No_OpClass                   0                       # Class of executed instruction
system.cpu03.op_class::IntAlu                       0                       # Class of executed instruction
system.cpu03.op_class::IntMult                      0                       # Class of executed instruction
system.cpu03.op_class::IntDiv                       0                       # Class of executed instruction
system.cpu03.op_class::FloatAdd                     0                       # Class of executed instruction
system.cpu03.op_class::FloatCmp                     0                       # Class of executed instruction
system.cpu03.op_class::FloatCvt                     0                       # Class of executed instruction
system.cpu03.op_class::FloatMult                    0                       # Class of executed instruction
system.cpu03.op_class::FloatMultAcc                 0                       # Class of executed instruction
system.cpu03.op_class::FloatDiv                     0                       # Class of executed instruction
system.cpu03.op_class::FloatMisc                    0                       # Class of executed instruction
system.cpu03.op_class::FloatSqrt                    0                       # Class of executed instruction
system.cpu03.op_class::SimdAdd                      0                       # Class of executed instruction
system.cpu03.op_class::SimdAddAcc                   0                       # Class of executed instruction
system.cpu03.op_class::SimdAlu                      0                       # Class of executed instruction
system.cpu03.op_class::SimdCmp                      0                       # Class of executed instruction
system.cpu03.op_class::SimdCvt                      0                       # Class of executed instruction
system.cpu03.op_class::SimdMisc                     0                       # Class of executed instruction
system.cpu03.op_class::SimdMult                     0                       # Class of executed instruction
system.cpu03.op_class::SimdMultAcc                  0                       # Class of executed instruction
system.cpu03.op_class::SimdShift                    0                       # Class of executed instruction
system.cpu03.op_class::SimdShiftAcc                 0                       # Class of executed instruction
system.cpu03.op_class::SimdDiv                      0                       # Class of executed instruction
system.cpu03.op_class::SimdSqrt                     0                       # Class of executed instruction
system.cpu03.op_class::SimdFloatAdd                 0                       # Class of executed instruction
system.cpu03.op_class::SimdFloatAlu                 0                       # Class of executed instruction
system.cpu03.op_class::SimdFloatCmp                 0                       # Class of executed instruction
system.cpu03.op_class::SimdFloatCvt                 0                       # Class of executed instruction
system.cpu03.op_class::SimdFloatDiv                 0                       # Class of executed instruction
system.cpu03.op_class::SimdFloatMisc                0                       # Class of executed instruction
system.cpu03.op_class::SimdFloatMult                0                       # Class of executed instruction
system.cpu03.op_class::SimdFloatMultAcc             0                       # Class of executed instruction
system.cpu03.op_class::SimdFloatSqrt                0                       # Class of executed instruction
system.cpu03.op_class::SimdReduceAdd                0                       # Class of executed instruction
system.cpu03.op_class::SimdReduceAlu                0                       # Class of executed instruction
system.cpu03.op_class::SimdReduceCmp                0                       # Class of executed instruction
system.cpu03.op_class::SimdFloatReduceAdd            0                       # Class of executed instruction
system.cpu03.op_class::SimdFloatReduceCmp            0                       # Class of executed instruction
system.cpu03.op_class::SimdAes                      0                       # Class of executed instruction
system.cpu03.op_class::SimdAesMix                   0                       # Class of executed instruction
system.cpu03.op_class::SimdSha1Hash                 0                       # Class of executed instruction
system.cpu03.op_class::SimdSha1Hash2                0                       # Class of executed instruction
system.cpu03.op_class::SimdSha256Hash               0                       # Class of executed instruction
system.cpu03.op_class::SimdSha256Hash2              0                       # Class of executed instruction
system.cpu03.op_class::SimdShaSigma2                0                       # Class of executed instruction
system.cpu03.op_class::SimdShaSigma3                0                       # Class of executed instruction
system.cpu03.op_class::SimdPredAlu                  0                       # Class of executed instruction
system.cpu03.op_class::MemRead                      0                       # Class of executed instruction
system.cpu03.op_class::MemWrite                     0                       # Class of executed instruction
system.cpu03.op_class::FloatMemRead                 0                       # Class of executed instruction
system.cpu03.op_class::FloatMemWrite                0                       # Class of executed instruction
system.cpu03.op_class::IprAccess                    0                       # Class of executed instruction
system.cpu03.op_class::InstPrefetch                 0                       # Class of executed instruction
system.cpu03.op_class::total                        0                       # Class of executed instruction
system.cpu04.committedInsts                         0                       # Number of instructions committed
system.cpu04.committedOps                           0                       # Number of ops (including micro ops) committed
system.cpu04.dtb.rdAccesses                         0                       # TLB accesses on read requests
system.cpu04.dtb.rdMisses                           0                       # TLB misses on read requests
system.cpu04.dtb.wrAccesses                         0                       # TLB accesses on write requests
system.cpu04.dtb.wrMisses                           0                       # TLB misses on write requests
system.cpu04.idle_fraction                          1                       # Percentage of idle cycles
system.cpu04.itb.rdAccesses                         0                       # TLB accesses on read requests
system.cpu04.itb.rdMisses                           0                       # TLB misses on read requests
system.cpu04.itb.wrAccesses                         0                       # TLB accesses on write requests
system.cpu04.itb.wrMisses                           0                       # TLB misses on write requests
system.cpu04.not_idle_fraction                      0                       # Percentage of non-idle cycles
system.cpu04.numCycles                              0                       # number of cpu cycles simulated
system.cpu04.numWorkItemsCompleted                  0                       # number of work items this cpu completed
system.cpu04.numWorkItemsStarted                    0                       # number of work items this cpu started
system.cpu04.num_busy_cycles                        0                       # Number of busy cycles
system.cpu04.num_conditional_control_insts            0                       # number of instructions that are conditional controls
system.cpu04.num_fp_alu_accesses                    0                       # Number of float alu accesses
system.cpu04.num_fp_insts                           0                       # number of float instructions
system.cpu04.num_fp_register_reads                  0                       # number of times the floating registers were read
system.cpu04.num_fp_register_writes                 0                       # number of times the floating registers were written
system.cpu04.num_func_calls                         0                       # number of times a function call or return occured
system.cpu04.num_idle_cycles                        0                       # Number of idle cycles
system.cpu04.num_int_alu_accesses                   0                       # Number of integer alu accesses
system.cpu04.num_int_insts                          0                       # number of integer instructions
system.cpu04.num_int_register_reads                 0                       # number of times the integer registers were read
system.cpu04.num_int_register_writes                0                       # number of times the integer registers were written
system.cpu04.num_load_insts                         0                       # Number of load instructions
system.cpu04.num_mem_refs                           0                       # number of memory refs
system.cpu04.num_store_insts                        0                       # Number of store instructions
system.cpu04.num_vec_alu_accesses                   0                       # Number of vector alu accesses
system.cpu04.num_vec_insts                          0                       # number of vector instructions
system.cpu04.num_vec_register_reads                 0                       # number of times the vector registers were read
system.cpu04.num_vec_register_writes                0                       # number of times the vector registers were written
system.cpu04.op_class::No_OpClass                   0                       # Class of executed instruction
system.cpu04.op_class::IntAlu                       0                       # Class of executed instruction
system.cpu04.op_class::IntMult                      0                       # Class of executed instruction
system.cpu04.op_class::IntDiv                       0                       # Class of executed instruction
system.cpu04.op_class::FloatAdd                     0                       # Class of executed instruction
system.cpu04.op_class::FloatCmp                     0                       # Class of executed instruction
system.cpu04.op_class::FloatCvt                     0                       # Class of executed instruction
system.cpu04.op_class::FloatMult                    0                       # Class of executed instruction
system.cpu04.op_class::FloatMultAcc                 0                       # Class of executed instruction
system.cpu04.op_class::FloatDiv                     0                       # Class of executed instruction
system.cpu04.op_class::FloatMisc                    0                       # Class of executed instruction
system.cpu04.op_class::FloatSqrt                    0                       # Class of executed instruction
system.cpu04.op_class::SimdAdd                      0                       # Class of executed instruction
system.cpu04.op_class::SimdAddAcc                   0                       # Class of executed instruction
system.cpu04.op_class::SimdAlu                      0                       # Class of executed instruction
system.cpu04.op_class::SimdCmp                      0                       # Class of executed instruction
system.cpu04.op_class::SimdCvt                      0                       # Class of executed instruction
system.cpu04.op_class::SimdMisc                     0                       # Class of executed instruction
system.cpu04.op_class::SimdMult                     0                       # Class of executed instruction
system.cpu04.op_class::SimdMultAcc                  0                       # Class of executed instruction
system.cpu04.op_class::SimdShift                    0                       # Class of executed instruction
system.cpu04.op_class::SimdShiftAcc                 0                       # Class of executed instruction
system.cpu04.op_class::SimdDiv                      0                       # Class of executed instruction
system.cpu04.op_class::SimdSqrt                     0                       # Class of executed instruction
system.cpu04.op_class::SimdFloatAdd                 0                       # Class of executed instruction
system.cpu04.op_class::SimdFloatAlu                 0                       # Class of executed instruction
system.cpu04.op_class::SimdFloatCmp                 0                       # Class of executed instruction
system.cpu04.op_class::SimdFloatCvt                 0                       # Class of executed instruction
system.cpu04.op_class::SimdFloatDiv                 0                       # Class of executed instruction
system.cpu04.op_class::SimdFloatMisc                0                       # Class of executed instruction
system.cpu04.op_class::SimdFloatMult                0                       # Class of executed instruction
system.cpu04.op_class::SimdFloatMultAcc             0                       # Class of executed instruction
system.cpu04.op_class::SimdFloatSqrt                0                       # Class of executed instruction
system.cpu04.op_class::SimdReduceAdd                0                       # Class of executed instruction
system.cpu04.op_class::SimdReduceAlu                0                       # Class of executed instruction
system.cpu04.op_class::SimdReduceCmp                0                       # Class of executed instruction
system.cpu04.op_class::SimdFloatReduceAdd            0                       # Class of executed instruction
system.cpu04.op_class::SimdFloatReduceCmp            0                       # Class of executed instruction
system.cpu04.op_class::SimdAes                      0                       # Class of executed instruction
system.cpu04.op_class::SimdAesMix                   0                       # Class of executed instruction
system.cpu04.op_class::SimdSha1Hash                 0                       # Class of executed instruction
system.cpu04.op_class::SimdSha1Hash2                0                       # Class of executed instruction
system.cpu04.op_class::SimdSha256Hash               0                       # Class of executed instruction
system.cpu04.op_class::SimdSha256Hash2              0                       # Class of executed instruction
system.cpu04.op_class::SimdShaSigma2                0                       # Class of executed instruction
system.cpu04.op_class::SimdShaSigma3                0                       # Class of executed instruction
system.cpu04.op_class::SimdPredAlu                  0                       # Class of executed instruction
system.cpu04.op_class::MemRead                      0                       # Class of executed instruction
system.cpu04.op_class::MemWrite                     0                       # Class of executed instruction
system.cpu04.op_class::FloatMemRead                 0                       # Class of executed instruction
system.cpu04.op_class::FloatMemWrite                0                       # Class of executed instruction
system.cpu04.op_class::IprAccess                    0                       # Class of executed instruction
system.cpu04.op_class::InstPrefetch                 0                       # Class of executed instruction
system.cpu04.op_class::total                        0                       # Class of executed instruction
system.cpu05.committedInsts                         0                       # Number of instructions committed
system.cpu05.committedOps                           0                       # Number of ops (including micro ops) committed
system.cpu05.dtb.rdAccesses                         0                       # TLB accesses on read requests
system.cpu05.dtb.rdMisses                           0                       # TLB misses on read requests
system.cpu05.dtb.wrAccesses                         0                       # TLB accesses on write requests
system.cpu05.dtb.wrMisses                           0                       # TLB misses on write requests
system.cpu05.idle_fraction                          1                       # Percentage of idle cycles
system.cpu05.itb.rdAccesses                         0                       # TLB accesses on read requests
system.cpu05.itb.rdMisses                           0                       # TLB misses on read requests
system.cpu05.itb.wrAccesses                         0                       # TLB accesses on write requests
system.cpu05.itb.wrMisses                           0                       # TLB misses on write requests
system.cpu05.not_idle_fraction                      0                       # Percentage of non-idle cycles
system.cpu05.numCycles                              0                       # number of cpu cycles simulated
system.cpu05.numWorkItemsCompleted                  0                       # number of work items this cpu completed
system.cpu05.numWorkItemsStarted                    0                       # number of work items this cpu started
system.cpu05.num_busy_cycles                        0                       # Number of busy cycles
system.cpu05.num_conditional_control_insts            0                       # number of instructions that are conditional controls
system.cpu05.num_fp_alu_accesses                    0                       # Number of float alu accesses
system.cpu05.num_fp_insts                           0                       # number of float instructions
system.cpu05.num_fp_register_reads                  0                       # number of times the floating registers were read
system.cpu05.num_fp_register_writes                 0                       # number of times the floating registers were written
system.cpu05.num_func_calls                         0                       # number of times a function call or return occured
system.cpu05.num_idle_cycles                        0                       # Number of idle cycles
system.cpu05.num_int_alu_accesses                   0                       # Number of integer alu accesses
system.cpu05.num_int_insts                          0                       # number of integer instructions
system.cpu05.num_int_register_reads                 0                       # number of times the integer registers were read
system.cpu05.num_int_register_writes                0                       # number of times the integer registers were written
system.cpu05.num_load_insts                         0                       # Number of load instructions
system.cpu05.num_mem_refs                           0                       # number of memory refs
system.cpu05.num_store_insts                        0                       # Number of store instructions
system.cpu05.num_vec_alu_accesses                   0                       # Number of vector alu accesses
system.cpu05.num_vec_insts                          0                       # number of vector instructions
system.cpu05.num_vec_register_reads                 0                       # number of times the vector registers were read
system.cpu05.num_vec_register_writes                0                       # number of times the vector registers were written
system.cpu05.op_class::No_OpClass                   0                       # Class of executed instruction
system.cpu05.op_class::IntAlu                       0                       # Class of executed instruction
system.cpu05.op_class::IntMult                      0                       # Class of executed instruction
system.cpu05.op_class::IntDiv                       0                       # Class of executed instruction
system.cpu05.op_class::FloatAdd                     0                       # Class of executed instruction
system.cpu05.op_class::FloatCmp                     0                       # Class of executed instruction
system.cpu05.op_class::FloatCvt                     0                       # Class of executed instruction
system.cpu05.op_class::FloatMult                    0                       # Class of executed instruction
system.cpu05.op_class::FloatMultAcc                 0                       # Class of executed instruction
system.cpu05.op_class::FloatDiv                     0                       # Class of executed instruction
system.cpu05.op_class::FloatMisc                    0                       # Class of executed instruction
system.cpu05.op_class::FloatSqrt                    0                       # Class of executed instruction
system.cpu05.op_class::SimdAdd                      0                       # Class of executed instruction
system.cpu05.op_class::SimdAddAcc                   0                       # Class of executed instruction
system.cpu05.op_class::SimdAlu                      0                       # Class of executed instruction
system.cpu05.op_class::SimdCmp                      0                       # Class of executed instruction
system.cpu05.op_class::SimdCvt                      0                       # Class of executed instruction
system.cpu05.op_class::SimdMisc                     0                       # Class of executed instruction
system.cpu05.op_class::SimdMult                     0                       # Class of executed instruction
system.cpu05.op_class::SimdMultAcc                  0                       # Class of executed instruction
system.cpu05.op_class::SimdShift                    0                       # Class of executed instruction
system.cpu05.op_class::SimdShiftAcc                 0                       # Class of executed instruction
system.cpu05.op_class::SimdDiv                      0                       # Class of executed instruction
system.cpu05.op_class::SimdSqrt                     0                       # Class of executed instruction
system.cpu05.op_class::SimdFloatAdd                 0                       # Class of executed instruction
system.cpu05.op_class::SimdFloatAlu                 0                       # Class of executed instruction
system.cpu05.op_class::SimdFloatCmp                 0                       # Class of executed instruction
system.cpu05.op_class::SimdFloatCvt                 0                       # Class of executed instruction
system.cpu05.op_class::SimdFloatDiv                 0                       # Class of executed instruction
system.cpu05.op_class::SimdFloatMisc                0                       # Class of executed instruction
system.cpu05.op_class::SimdFloatMult                0                       # Class of executed instruction
system.cpu05.op_class::SimdFloatMultAcc             0                       # Class of executed instruction
system.cpu05.op_class::SimdFloatSqrt                0                       # Class of executed instruction
system.cpu05.op_class::SimdReduceAdd                0                       # Class of executed instruction
system.cpu05.op_class::SimdReduceAlu                0                       # Class of executed instruction
system.cpu05.op_class::SimdReduceCmp                0                       # Class of executed instruction
system.cpu05.op_class::SimdFloatReduceAdd            0                       # Class of executed instruction
system.cpu05.op_class::SimdFloatReduceCmp            0                       # Class of executed instruction
system.cpu05.op_class::SimdAes                      0                       # Class of executed instruction
system.cpu05.op_class::SimdAesMix                   0                       # Class of executed instruction
system.cpu05.op_class::SimdSha1Hash                 0                       # Class of executed instruction
system.cpu05.op_class::SimdSha1Hash2                0                       # Class of executed instruction
system.cpu05.op_class::SimdSha256Hash               0                       # Class of executed instruction
system.cpu05.op_class::SimdSha256Hash2              0                       # Class of executed instruction
system.cpu05.op_class::SimdShaSigma2                0                       # Class of executed instruction
system.cpu05.op_class::SimdShaSigma3                0                       # Class of executed instruction
system.cpu05.op_class::SimdPredAlu                  0                       # Class of executed instruction
system.cpu05.op_class::MemRead                      0                       # Class of executed instruction
system.cpu05.op_class::MemWrite                     0                       # Class of executed instruction
system.cpu05.op_class::FloatMemRead                 0                       # Class of executed instruction
system.cpu05.op_class::FloatMemWrite                0                       # Class of executed instruction
system.cpu05.op_class::IprAccess                    0                       # Class of executed instruction
system.cpu05.op_class::InstPrefetch                 0                       # Class of executed instruction
system.cpu05.op_class::total                        0                       # Class of executed instruction
system.cpu06.committedInsts                         0                       # Number of instructions committed
system.cpu06.committedOps                           0                       # Number of ops (including micro ops) committed
system.cpu06.dtb.rdAccesses                         0                       # TLB accesses on read requests
system.cpu06.dtb.rdMisses                           0                       # TLB misses on read requests
system.cpu06.dtb.wrAccesses                         0                       # TLB accesses on write requests
system.cpu06.dtb.wrMisses                           0                       # TLB misses on write requests
system.cpu06.idle_fraction                          1                       # Percentage of idle cycles
system.cpu06.itb.rdAccesses                         0                       # TLB accesses on read requests
system.cpu06.itb.rdMisses                           0                       # TLB misses on read requests
system.cpu06.itb.wrAccesses                         0                       # TLB accesses on write requests
system.cpu06.itb.wrMisses                           0                       # TLB misses on write requests
system.cpu06.not_idle_fraction                      0                       # Percentage of non-idle cycles
system.cpu06.numCycles                              0                       # number of cpu cycles simulated
system.cpu06.numWorkItemsCompleted                  0                       # number of work items this cpu completed
system.cpu06.numWorkItemsStarted                    0                       # number of work items this cpu started
system.cpu06.num_busy_cycles                        0                       # Number of busy cycles
system.cpu06.num_conditional_control_insts            0                       # number of instructions that are conditional controls
system.cpu06.num_fp_alu_accesses                    0                       # Number of float alu accesses
system.cpu06.num_fp_insts                           0                       # number of float instructions
system.cpu06.num_fp_register_reads                  0                       # number of times the floating registers were read
system.cpu06.num_fp_register_writes                 0                       # number of times the floating registers were written
system.cpu06.num_func_calls                         0                       # number of times a function call or return occured
system.cpu06.num_idle_cycles                        0                       # Number of idle cycles
system.cpu06.num_int_alu_accesses                   0                       # Number of integer alu accesses
system.cpu06.num_int_insts                          0                       # number of integer instructions
system.cpu06.num_int_register_reads                 0                       # number of times the integer registers were read
system.cpu06.num_int_register_writes                0                       # number of times the integer registers were written
system.cpu06.num_load_insts                         0                       # Number of load instructions
system.cpu06.num_mem_refs                           0                       # number of memory refs
system.cpu06.num_store_insts                        0                       # Number of store instructions
system.cpu06.num_vec_alu_accesses                   0                       # Number of vector alu accesses
system.cpu06.num_vec_insts                          0                       # number of vector instructions
system.cpu06.num_vec_register_reads                 0                       # number of times the vector registers were read
system.cpu06.num_vec_register_writes                0                       # number of times the vector registers were written
system.cpu06.op_class::No_OpClass                   0                       # Class of executed instruction
system.cpu06.op_class::IntAlu                       0                       # Class of executed instruction
system.cpu06.op_class::IntMult                      0                       # Class of executed instruction
system.cpu06.op_class::IntDiv                       0                       # Class of executed instruction
system.cpu06.op_class::FloatAdd                     0                       # Class of executed instruction
system.cpu06.op_class::FloatCmp                     0                       # Class of executed instruction
system.cpu06.op_class::FloatCvt                     0                       # Class of executed instruction
system.cpu06.op_class::FloatMult                    0                       # Class of executed instruction
system.cpu06.op_class::FloatMultAcc                 0                       # Class of executed instruction
system.cpu06.op_class::FloatDiv                     0                       # Class of executed instruction
system.cpu06.op_class::FloatMisc                    0                       # Class of executed instruction
system.cpu06.op_class::FloatSqrt                    0                       # Class of executed instruction
system.cpu06.op_class::SimdAdd                      0                       # Class of executed instruction
system.cpu06.op_class::SimdAddAcc                   0                       # Class of executed instruction
system.cpu06.op_class::SimdAlu                      0                       # Class of executed instruction
system.cpu06.op_class::SimdCmp                      0                       # Class of executed instruction
system.cpu06.op_class::SimdCvt                      0                       # Class of executed instruction
system.cpu06.op_class::SimdMisc                     0                       # Class of executed instruction
system.cpu06.op_class::SimdMult                     0                       # Class of executed instruction
system.cpu06.op_class::SimdMultAcc                  0                       # Class of executed instruction
system.cpu06.op_class::SimdShift                    0                       # Class of executed instruction
system.cpu06.op_class::SimdShiftAcc                 0                       # Class of executed instruction
system.cpu06.op_class::SimdDiv                      0                       # Class of executed instruction
system.cpu06.op_class::SimdSqrt                     0                       # Class of executed instruction
system.cpu06.op_class::SimdFloatAdd                 0                       # Class of executed instruction
system.cpu06.op_class::SimdFloatAlu                 0                       # Class of executed instruction
system.cpu06.op_class::SimdFloatCmp                 0                       # Class of executed instruction
system.cpu06.op_class::SimdFloatCvt                 0                       # Class of executed instruction
system.cpu06.op_class::SimdFloatDiv                 0                       # Class of executed instruction
system.cpu06.op_class::SimdFloatMisc                0                       # Class of executed instruction
system.cpu06.op_class::SimdFloatMult                0                       # Class of executed instruction
system.cpu06.op_class::SimdFloatMultAcc             0                       # Class of executed instruction
system.cpu06.op_class::SimdFloatSqrt                0                       # Class of executed instruction
system.cpu06.op_class::SimdReduceAdd                0                       # Class of executed instruction
system.cpu06.op_class::SimdReduceAlu                0                       # Class of executed instruction
system.cpu06.op_class::SimdReduceCmp                0                       # Class of executed instruction
system.cpu06.op_class::SimdFloatReduceAdd            0                       # Class of executed instruction
system.cpu06.op_class::SimdFloatReduceCmp            0                       # Class of executed instruction
system.cpu06.op_class::SimdAes                      0                       # Class of executed instruction
system.cpu06.op_class::SimdAesMix                   0                       # Class of executed instruction
system.cpu06.op_class::SimdSha1Hash                 0                       # Class of executed instruction
system.cpu06.op_class::SimdSha1Hash2                0                       # Class of executed instruction
system.cpu06.op_class::SimdSha256Hash               0                       # Class of executed instruction
system.cpu06.op_class::SimdSha256Hash2              0                       # Class of executed instruction
system.cpu06.op_class::SimdShaSigma2                0                       # Class of executed instruction
system.cpu06.op_class::SimdShaSigma3                0                       # Class of executed instruction
system.cpu06.op_class::SimdPredAlu                  0                       # Class of executed instruction
system.cpu06.op_class::MemRead                      0                       # Class of executed instruction
system.cpu06.op_class::MemWrite                     0                       # Class of executed instruction
system.cpu06.op_class::FloatMemRead                 0                       # Class of executed instruction
system.cpu06.op_class::FloatMemWrite                0                       # Class of executed instruction
system.cpu06.op_class::IprAccess                    0                       # Class of executed instruction
system.cpu06.op_class::InstPrefetch                 0                       # Class of executed instruction
system.cpu06.op_class::total                        0                       # Class of executed instruction
system.cpu07.committedInsts                         0                       # Number of instructions committed
system.cpu07.committedOps                           0                       # Number of ops (including micro ops) committed
system.cpu07.dtb.rdAccesses                         0                       # TLB accesses on read requests
system.cpu07.dtb.rdMisses                           0                       # TLB misses on read requests
system.cpu07.dtb.wrAccesses                         0                       # TLB accesses on write requests
system.cpu07.dtb.wrMisses                           0                       # TLB misses on write requests
system.cpu07.idle_fraction                          1                       # Percentage of idle cycles
system.cpu07.itb.rdAccesses                         0                       # TLB accesses on read requests
system.cpu07.itb.rdMisses                           0                       # TLB misses on read requests
system.cpu07.itb.wrAccesses                         0                       # TLB accesses on write requests
system.cpu07.itb.wrMisses                           0                       # TLB misses on write requests
system.cpu07.not_idle_fraction                      0                       # Percentage of non-idle cycles
system.cpu07.numCycles                              0                       # number of cpu cycles simulated
system.cpu07.numWorkItemsCompleted                  0                       # number of work items this cpu completed
system.cpu07.numWorkItemsStarted                    0                       # number of work items this cpu started
system.cpu07.num_busy_cycles                        0                       # Number of busy cycles
system.cpu07.num_conditional_control_insts            0                       # number of instructions that are conditional controls
system.cpu07.num_fp_alu_accesses                    0                       # Number of float alu accesses
system.cpu07.num_fp_insts                           0                       # number of float instructions
system.cpu07.num_fp_register_reads                  0                       # number of times the floating registers were read
system.cpu07.num_fp_register_writes                 0                       # number of times the floating registers were written
system.cpu07.num_func_calls                         0                       # number of times a function call or return occured
system.cpu07.num_idle_cycles                        0                       # Number of idle cycles
system.cpu07.num_int_alu_accesses                   0                       # Number of integer alu accesses
system.cpu07.num_int_insts                          0                       # number of integer instructions
system.cpu07.num_int_register_reads                 0                       # number of times the integer registers were read
system.cpu07.num_int_register_writes                0                       # number of times the integer registers were written
system.cpu07.num_load_insts                         0                       # Number of load instructions
system.cpu07.num_mem_refs                           0                       # number of memory refs
system.cpu07.num_store_insts                        0                       # Number of store instructions
system.cpu07.num_vec_alu_accesses                   0                       # Number of vector alu accesses
system.cpu07.num_vec_insts                          0                       # number of vector instructions
system.cpu07.num_vec_register_reads                 0                       # number of times the vector registers were read
system.cpu07.num_vec_register_writes                0                       # number of times the vector registers were written
system.cpu07.op_class::No_OpClass                   0                       # Class of executed instruction
system.cpu07.op_class::IntAlu                       0                       # Class of executed instruction
system.cpu07.op_class::IntMult                      0                       # Class of executed instruction
system.cpu07.op_class::IntDiv                       0                       # Class of executed instruction
system.cpu07.op_class::FloatAdd                     0                       # Class of executed instruction
system.cpu07.op_class::FloatCmp                     0                       # Class of executed instruction
system.cpu07.op_class::FloatCvt                     0                       # Class of executed instruction
system.cpu07.op_class::FloatMult                    0                       # Class of executed instruction
system.cpu07.op_class::FloatMultAcc                 0                       # Class of executed instruction
system.cpu07.op_class::FloatDiv                     0                       # Class of executed instruction
system.cpu07.op_class::FloatMisc                    0                       # Class of executed instruction
system.cpu07.op_class::FloatSqrt                    0                       # Class of executed instruction
system.cpu07.op_class::SimdAdd                      0                       # Class of executed instruction
system.cpu07.op_class::SimdAddAcc                   0                       # Class of executed instruction
system.cpu07.op_class::SimdAlu                      0                       # Class of executed instruction
system.cpu07.op_class::SimdCmp                      0                       # Class of executed instruction
system.cpu07.op_class::SimdCvt                      0                       # Class of executed instruction
system.cpu07.op_class::SimdMisc                     0                       # Class of executed instruction
system.cpu07.op_class::SimdMult                     0                       # Class of executed instruction
system.cpu07.op_class::SimdMultAcc                  0                       # Class of executed instruction
system.cpu07.op_class::SimdShift                    0                       # Class of executed instruction
system.cpu07.op_class::SimdShiftAcc                 0                       # Class of executed instruction
system.cpu07.op_class::SimdDiv                      0                       # Class of executed instruction
system.cpu07.op_class::SimdSqrt                     0                       # Class of executed instruction
system.cpu07.op_class::SimdFloatAdd                 0                       # Class of executed instruction
system.cpu07.op_class::SimdFloatAlu                 0                       # Class of executed instruction
system.cpu07.op_class::SimdFloatCmp                 0                       # Class of executed instruction
system.cpu07.op_class::SimdFloatCvt                 0                       # Class of executed instruction
system.cpu07.op_class::SimdFloatDiv                 0                       # Class of executed instruction
system.cpu07.op_class::SimdFloatMisc                0                       # Class of executed instruction
system.cpu07.op_class::SimdFloatMult                0                       # Class of executed instruction
system.cpu07.op_class::SimdFloatMultAcc             0                       # Class of executed instruction
system.cpu07.op_class::SimdFloatSqrt                0                       # Class of executed instruction
system.cpu07.op_class::SimdReduceAdd                0                       # Class of executed instruction
system.cpu07.op_class::SimdReduceAlu                0                       # Class of executed instruction
system.cpu07.op_class::SimdReduceCmp                0                       # Class of executed instruction
system.cpu07.op_class::SimdFloatReduceAdd            0                       # Class of executed instruction
system.cpu07.op_class::SimdFloatReduceCmp            0                       # Class of executed instruction
system.cpu07.op_class::SimdAes                      0                       # Class of executed instruction
system.cpu07.op_class::SimdAesMix                   0                       # Class of executed instruction
system.cpu07.op_class::SimdSha1Hash                 0                       # Class of executed instruction
system.cpu07.op_class::SimdSha1Hash2                0                       # Class of executed instruction
system.cpu07.op_class::SimdSha256Hash               0                       # Class of executed instruction
system.cpu07.op_class::SimdSha256Hash2              0                       # Class of executed instruction
system.cpu07.op_class::SimdShaSigma2                0                       # Class of executed instruction
system.cpu07.op_class::SimdShaSigma3                0                       # Class of executed instruction
system.cpu07.op_class::SimdPredAlu                  0                       # Class of executed instruction
system.cpu07.op_class::MemRead                      0                       # Class of executed instruction
system.cpu07.op_class::MemWrite                     0                       # Class of executed instruction
system.cpu07.op_class::FloatMemRead                 0                       # Class of executed instruction
system.cpu07.op_class::FloatMemWrite                0                       # Class of executed instruction
system.cpu07.op_class::IprAccess                    0                       # Class of executed instruction
system.cpu07.op_class::InstPrefetch                 0                       # Class of executed instruction
system.cpu07.op_class::total                        0                       # Class of executed instruction
system.cpu08.committedInsts                         0                       # Number of instructions committed
system.cpu08.committedOps                           0                       # Number of ops (including micro ops) committed
system.cpu08.dtb.rdAccesses                         0                       # TLB accesses on read requests
system.cpu08.dtb.rdMisses                           0                       # TLB misses on read requests
system.cpu08.dtb.wrAccesses                         0                       # TLB accesses on write requests
system.cpu08.dtb.wrMisses                           0                       # TLB misses on write requests
system.cpu08.idle_fraction                          1                       # Percentage of idle cycles
[...]
system.mem_ctrls15.bw_write::.ruby.dir_cntrl15     14447106                       # Write bandwidth from this memory (bytes/s)
system.mem_ctrls15.bw_write::total           14447106                       # Write bandwidth from this memory (bytes/s)
system.mem_ctrls15.bw_total::.ruby.dir_cntrl15     28898637                       # Total bandwidth to/from this memory (bytes/s)
system.mem_ctrls15.bw_total::total           28898637                       # Total bandwidth to/from this memory (bytes/s)
system.mem_ctrls15.power_state.pwrStateResidencyTicks::UNDEFINED 260255315000                       # Cumulative time (in ticks) in various power states
system.mem_ctrls8.bytes_read::.ruby.dir_cntrl8      3778880                       # Number of bytes read from this memory
system.mem_ctrls8.bytes_read::total           3778880                       # Number of bytes read from this memory
system.mem_ctrls8.bytes_written::.ruby.dir_cntrl8      3777920                       # Number of bytes written to this memory
system.mem_ctrls8.bytes_written::total        3777920                       # Number of bytes written to this memory
system.mem_ctrls8.num_reads::.ruby.dir_cntrl8        59045                       # Number of read requests responded to by this memory
system.mem_ctrls8.num_reads::total              59045                       # Number of read requests responded to by this memory
system.mem_ctrls8.num_writes::.ruby.dir_cntrl8        59030                       # Number of write requests responded to by this memory
system.mem_ctrls8.num_writes::total             59030                       # Number of write requests responded to by this memory
system.mem_ctrls8.bw_read::.ruby.dir_cntrl8     14519896                       # Total read bandwidth from this memory (bytes/s)
system.mem_ctrls8.bw_read::total             14519896                       # Total read bandwidth from this memory (bytes/s)
system.mem_ctrls8.bw_write::.ruby.dir_cntrl8     14516207                       # Write bandwidth from this memory (bytes/s)
system.mem_ctrls8.bw_write::total            14516207                       # Write bandwidth from this memory (bytes/s)
system.mem_ctrls8.bw_total::.ruby.dir_cntrl8     29036102                       # Total bandwidth to/from this memory (bytes/s)
system.mem_ctrls8.bw_total::total            29036102                       # Total bandwidth to/from this memory (bytes/s)
system.mem_ctrls8.power_state.pwrStateResidencyTicks::UNDEFINED 260255315000                       # Cumulative time (in ticks) in various power states
system.mem_ctrls9.bytes_read::.ruby.dir_cntrl9      3874816                       # Number of bytes read from this memory
system.mem_ctrls9.bytes_read::total           3874816                       # Number of bytes read from this memory
system.mem_ctrls9.bytes_written::.ruby.dir_cntrl9      3873792                       # Number of bytes written to this memory
system.mem_ctrls9.bytes_written::total        3873792                       # Number of bytes written to this memory
system.mem_ctrls9.num_reads::.ruby.dir_cntrl9        60544                       # Number of read requests responded to by this memory
system.mem_ctrls9.num_reads::total              60544                       # Number of read requests responded to by this memory
system.mem_ctrls9.num_writes::.ruby.dir_cntrl9        60528                       # Number of write requests responded to by this memory
system.mem_ctrls9.num_writes::total             60528                       # Number of write requests responded to by this memory
system.mem_ctrls9.bw_read::.ruby.dir_cntrl9     14888518                       # Total read bandwidth from this memory (bytes/s)
system.mem_ctrls9.bw_read::total             14888518                       # Total read bandwidth from this memory (bytes/s)
system.mem_ctrls9.bw_write::.ruby.dir_cntrl9     14884584                       # Write bandwidth from this memory (bytes/s)
system.mem_ctrls9.bw_write::total            14884584                       # Write bandwidth from this memory (bytes/s)
system.mem_ctrls9.bw_total::.ruby.dir_cntrl9     29773102                       # Total bandwidth to/from this memory (bytes/s)
system.mem_ctrls9.bw_total::total            29773102                       # Total bandwidth to/from this memory (bytes/s)
system.mem_ctrls9.power_state.pwrStateResidencyTicks::UNDEFINED 260255315000                       # Cumulative time (in ticks) in various power states
system.mem_ctrls2.bytes_read::.ruby.dir_cntrl2      3589440                       # Number of bytes read from this memory
system.mem_ctrls2.bytes_read::total           3589440                       # Number of bytes read from this memory
system.mem_ctrls2.bytes_written::.ruby.dir_cntrl2      3588288                       # Number of bytes written to this memory
system.mem_ctrls2.bytes_written::total        3588288                       # Number of bytes written to this memory
system.mem_ctrls2.num_reads::.ruby.dir_cntrl2        56085                       # Number of read requests responded to by this memory
system.mem_ctrls2.num_reads::total              56085                       # Number of read requests responded to by this memory
system.mem_ctrls2.num_writes::.ruby.dir_cntrl2        56067                       # Number of write requests responded to by this memory
system.mem_ctrls2.num_writes::total             56067                       # Number of write requests responded to by this memory
system.mem_ctrls2.bw_read::.ruby.dir_cntrl2     13791995                       # Total read bandwidth from this memory (bytes/s)
system.mem_ctrls2.bw_read::total             13791995                       # Total read bandwidth from this memory (bytes/s)
system.mem_ctrls2.bw_write::.ruby.dir_cntrl2     13787569                       # Write bandwidth from this memory (bytes/s)
system.mem_ctrls2.bw_write::total            13787569                       # Write bandwidth from this memory (bytes/s)
system.mem_ctrls2.bw_total::.ruby.dir_cntrl2     27579564                       # Total bandwidth to/from this memory (bytes/s)
system.mem_ctrls2.bw_total::total            27579564                       # Total bandwidth to/from this memory (bytes/s)
system.mem_ctrls2.power_state.pwrStateResidencyTicks::UNDEFINED 260255315000                       # Cumulative time (in ticks) in various power states
system.mem_ctrls3.bytes_read::.ruby.dir_cntrl3      3622208                       # Number of bytes read from this memory
system.mem_ctrls3.bytes_read::total           3622208                       # Number of bytes read from this memory
system.mem_ctrls3.bytes_written::.ruby.dir_cntrl3      3621312                       # Number of bytes written to this memory
system.mem_ctrls3.bytes_written::total        3621312                       # Number of bytes written to this memory
system.mem_ctrls3.num_reads::.ruby.dir_cntrl3        56597                       # Number of read requests responded to by this memory
system.mem_ctrls3.num_reads::total              56597                       # Number of read requests responded to by this memory
system.mem_ctrls3.num_writes::.ruby.dir_cntrl3        56583                       # Number of write requests responded to by this memory
system.mem_ctrls3.num_writes::total             56583                       # Number of write requests responded to by this memory
system.mem_ctrls3.bw_read::.ruby.dir_cntrl3     13917902                       # Total read bandwidth from this memory (bytes/s)
system.mem_ctrls3.bw_read::total             13917902                       # Total read bandwidth from this memory (bytes/s)
system.mem_ctrls3.bw_write::.ruby.dir_cntrl3     13914459                       # Write bandwidth from this memory (bytes/s)
system.mem_ctrls3.bw_write::total            13914459                       # Write bandwidth from this memory (bytes/s)
system.mem_ctrls3.bw_total::.ruby.dir_cntrl3     27832361                       # Total bandwidth to/from this memory (bytes/s)
system.mem_ctrls3.bw_total::total            27832361                       # Total bandwidth to/from this memory (bytes/s)
system.mem_ctrls3.power_state.pwrStateResidencyTicks::UNDEFINED 260255315000                       # Cumulative time (in ticks) in various power states
system.mem_ctrls0.bytes_read::.ruby.dir_cntrl0      3817536                       # Number of bytes read from this memory
system.mem_ctrls0.bytes_read::total           3817536                       # Number of bytes read from this memory
system.mem_ctrls0.bytes_written::.ruby.dir_cntrl0      3816448                       # Number of bytes written to this memory
system.mem_ctrls0.bytes_written::total        3816448                       # Number of bytes written to this memory
system.mem_ctrls0.num_reads::.ruby.dir_cntrl0        59649                       # Number of read requests responded to by this memory
system.mem_ctrls0.num_reads::total              59649                       # Number of read requests responded to by this memory
system.mem_ctrls0.num_writes::.ruby.dir_cntrl0        59632                       # Number of write requests responded to by this memory
system.mem_ctrls0.num_writes::total             59632                       # Number of write requests responded to by this memory
system.mem_ctrls0.bw_read::.ruby.dir_cntrl0     14668427                       # Total read bandwidth from this memory (bytes/s)
system.mem_ctrls0.bw_read::total             14668427                       # Total read bandwidth from this memory (bytes/s)
system.mem_ctrls0.bw_write::.ruby.dir_cntrl0     14664246                       # Write bandwidth from this memory (bytes/s)
system.mem_ctrls0.bw_write::total            14664246                       # Write bandwidth from this memory (bytes/s)
system.mem_ctrls0.bw_total::.ruby.dir_cntrl0     29332673                       # Total bandwidth to/from this memory (bytes/s)
system.mem_ctrls0.bw_total::total            29332673                       # Total bandwidth to/from this memory (bytes/s)
system.mem_ctrls0.power_state.pwrStateResidencyTicks::UNDEFINED 260255315000                       # Cumulative time (in ticks) in various power states
system.mem_ctrls1.bytes_read::.ruby.dir_cntrl1      3622528                       # Number of bytes read from this memory
system.mem_ctrls1.bytes_read::total           3622528                       # Number of bytes read from this memory
system.mem_ctrls1.bytes_written::.ruby.dir_cntrl1      3621440                       # Number of bytes written to this memory
system.mem_ctrls1.bytes_written::total        3621440                       # Number of bytes written to this memory
system.mem_ctrls1.num_reads::.ruby.dir_cntrl1        56602                       # Number of read requests responded to by this memory
system.mem_ctrls1.num_reads::total              56602                       # Number of read requests responded to by this memory
system.mem_ctrls1.num_writes::.ruby.dir_cntrl1        56585                       # Number of write requests responded to by this memory
system.mem_ctrls1.num_writes::total             56585                       # Number of write requests responded to by this memory
system.mem_ctrls1.bw_read::.ruby.dir_cntrl1     13919132                       # Total read bandwidth from this memory (bytes/s)
system.mem_ctrls1.bw_read::total             13919132                       # Total read bandwidth from this memory (bytes/s)
system.mem_ctrls1.bw_write::.ruby.dir_cntrl1     13914951                       # Write bandwidth from this memory (bytes/s)
system.mem_ctrls1.bw_write::total            13914951                       # Write bandwidth from this memory (bytes/s)
system.mem_ctrls1.bw_total::.ruby.dir_cntrl1     27834083                       # Total bandwidth to/from this memory (bytes/s)
system.mem_ctrls1.bw_total::total            27834083                       # Total bandwidth to/from this memory (bytes/s)
system.mem_ctrls1.power_state.pwrStateResidencyTicks::UNDEFINED 260255315000                       # Cumulative time (in ticks) in various power states
system.mem_ctrls6.bytes_read::.ruby.dir_cntrl6      3696576                       # Number of bytes read from this memory
system.mem_ctrls6.bytes_read::total           3696576                       # Number of bytes read from this memory
system.mem_ctrls6.bytes_written::.ruby.dir_cntrl6      3695616                       # Number of bytes written to this memory
system.mem_ctrls6.bytes_written::total        3695616                       # Number of bytes written to this memory
system.mem_ctrls6.num_reads::.ruby.dir_cntrl6        57759                       # Number of read requests responded to by this memory
system.mem_ctrls6.num_reads::total              57759                       # Number of read requests responded to by this memory
system.mem_ctrls6.num_writes::.ruby.dir_cntrl6        57744                       # Number of write requests responded to by this memory
system.mem_ctrls6.num_writes::total             57744                       # Number of write requests responded to by this memory
system.mem_ctrls6.bw_read::.ruby.dir_cntrl6     14203652                       # Total read bandwidth from this memory (bytes/s)
system.mem_ctrls6.bw_read::total             14203652                       # Total read bandwidth from this memory (bytes/s)
system.mem_ctrls6.bw_write::.ruby.dir_cntrl6     14199964                       # Write bandwidth from this memory (bytes/s)
system.mem_ctrls6.bw_write::total            14199964                       # Write bandwidth from this memory (bytes/s)
system.mem_ctrls6.bw_total::.ruby.dir_cntrl6     28403616                       # Total bandwidth to/from this memory (bytes/s)
system.mem_ctrls6.bw_total::total            28403616                       # Total bandwidth to/from this memory (bytes/s)
system.mem_ctrls6.power_state.pwrStateResidencyTicks::UNDEFINED 260255315000                       # Cumulative time (in ticks) in various power states
system.mem_ctrls7.bytes_read::.ruby.dir_cntrl7      3724160                       # Number of bytes read from this memory
system.mem_ctrls7.bytes_read::total           3724160                       # Number of bytes read from this memory
system.mem_ctrls7.bytes_written::.ruby.dir_cntrl7      3723136                       # Number of bytes written to this memory
system.mem_ctrls7.bytes_written::total        3723136                       # Number of bytes written to this memory
system.mem_ctrls7.num_reads::.ruby.dir_cntrl7        58190                       # Number of read requests responded to by this memory
system.mem_ctrls7.num_reads::total              58190                       # Number of read requests responded to by this memory
system.mem_ctrls7.num_writes::.ruby.dir_cntrl7        58174                       # Number of write requests responded to by this memory
system.mem_ctrls7.num_writes::total             58174                       # Number of write requests responded to by this memory
system.mem_ctrls7.bw_read::.ruby.dir_cntrl7     14309641                       # Total read bandwidth from this memory (bytes/s)
system.mem_ctrls7.bw_read::total             14309641                       # Total read bandwidth from this memory (bytes/s)
system.mem_ctrls7.bw_write::.ruby.dir_cntrl7     14305706                       # Write bandwidth from this memory (bytes/s)
system.mem_ctrls7.bw_write::total            14305706                       # Write bandwidth from this memory (bytes/s)
system.mem_ctrls7.bw_total::.ruby.dir_cntrl7     28615346                       # Total bandwidth to/from this memory (bytes/s)
system.mem_ctrls7.bw_total::total            28615346                       # Total bandwidth to/from this memory (bytes/s)
system.mem_ctrls7.power_state.pwrStateResidencyTicks::UNDEFINED 260255315000                       # Cumulative time (in ticks) in various power states
system.mem_ctrls4.bytes_read::.ruby.dir_cntrl4      3895040                       # Number of bytes read from this memory
system.mem_ctrls4.bytes_read::total           3895040                       # Number of bytes read from this memory
system.mem_ctrls4.bytes_written::.ruby.dir_cntrl4      3894016                       # Number of bytes written to this memory
system.mem_ctrls4.bytes_written::total        3894016                       # Number of bytes written to this memory
system.mem_ctrls4.num_reads::.ruby.dir_cntrl4        60860                       # Number of read requests responded to by this memory
system.mem_ctrls4.num_reads::total              60860                       # Number of read requests responded to by this memory
system.mem_ctrls4.num_writes::.ruby.dir_cntrl4        60844                       # Number of write requests responded to by this memory
system.mem_ctrls4.num_writes::total             60844                       # Number of write requests responded to by this memory
system.mem_ctrls4.bw_read::.ruby.dir_cntrl4     14966227                       # Total read bandwidth from this memory (bytes/s)
system.mem_ctrls4.bw_read::total             14966227                       # Total read bandwidth from this memory (bytes/s)
system.mem_ctrls4.bw_write::.ruby.dir_cntrl4     14962292                       # Write bandwidth from this memory (bytes/s)
system.mem_ctrls4.bw_write::total            14962292                       # Write bandwidth from this memory (bytes/s)
system.mem_ctrls4.bw_total::.ruby.dir_cntrl4     29928518                       # Total bandwidth to/from this memory (bytes/s)
system.mem_ctrls4.bw_total::total            29928518                       # Total bandwidth to/from this memory (bytes/s)
system.mem_ctrls4.power_state.pwrStateResidencyTicks::UNDEFINED 260255315000                       # Cumulative time (in ticks) in various power states
system.mem_ctrls5.bytes_read::.ruby.dir_cntrl5      3674560                       # Number of bytes read from this memory
system.mem_ctrls5.bytes_read::total           3674560                       # Number of bytes read from this memory
system.mem_ctrls5.bytes_written::.ruby.dir_cntrl5      3673408                       # Number of bytes written to this memory
system.mem_ctrls5.bytes_written::total        3673408                       # Number of bytes written to this memory
system.mem_ctrls5.num_reads::.ruby.dir_cntrl5        57415                       # Number of read requests responded to by this memory
system.mem_ctrls5.num_reads::total              57415                       # Number of read requests responded to by this memory
system.mem_ctrls5.num_writes::.ruby.dir_cntrl5        57397                       # Number of write requests responded to by this memory
system.mem_ctrls5.num_writes::total             57397                       # Number of write requests responded to by this memory
system.mem_ctrls5.bw_read::.ruby.dir_cntrl5     14119058                       # Total read bandwidth from this memory (bytes/s)
system.mem_ctrls5.bw_read::total             14119058                       # Total read bandwidth from this memory (bytes/s)
system.mem_ctrls5.bw_write::.ruby.dir_cntrl5     14114632                       # Write bandwidth from this memory (bytes/s)
system.mem_ctrls5.bw_write::total            14114632                       # Write bandwidth from this memory (bytes/s)
system.mem_ctrls5.bw_total::.ruby.dir_cntrl5     28233690                       # Total bandwidth to/from this memory (bytes/s)
system.mem_ctrls5.bw_total::total            28233690                       # Total bandwidth to/from this memory (bytes/s)
system.mem_ctrls5.power_state.pwrStateResidencyTicks::UNDEFINED 260255315000                       # Cumulative time (in ticks) in various power states
system.cpu_voltage_domain.voltage                   1                       # Voltage in Volts

---------- End Simulation Statistics   ----------
