
---------- Begin Simulation Statistics ----------
final_tick                               662824708000                       # Number of ticks from beginning of simulation (restored from checkpoints and never reset)
host_inst_rate                                 122212                       # Simulator instruction rate (inst/s)
host_mem_usage                                4982044                       # Number of bytes of host memory used
host_op_rate                                   255106                       # Simulator op (including micro ops) rate (op/s)
host_seconds                                  2062.17                       # Real time elapsed on the host
host_tick_rate                              321421067                       # Simulator tick rate (ticks/s)
sim_freq                                 1000000000000                       # Frequency of simulated ticks
sim_insts                                   252022367                       # Number of instructions simulated
sim_ops                                     526071555                       # Number of ops (including micro ops) simulated
sim_seconds                                  0.662825                       # Number of seconds simulated
sim_ticks                                662824708000                       # Number of ticks simulated
system.cpu00.Branches                        36045601                       # Number of branches fetched
system.cpu00.committedInsts                 252022367                       # Number of instructions committed
system.cpu00.committedOps                   526071555                       # Number of ops (including micro ops) committed
system.cpu00.dtb.rdAccesses                  98424185                       # TLB accesses on read requests
system.cpu00.dtb.rdMisses                        5984                       # TLB misses on read requests
system.cpu00.dtb.wrAccesses                  38127120                       # TLB accesses on write requests
system.cpu00.dtb.wrMisses                        1100                       # TLB misses on write requests
system.cpu00.idle_fraction                          0                       # Percentage of idle cycles
system.cpu00.itb.rdAccesses                         0                       # TLB accesses on read requests
system.cpu00.itb.rdMisses                           0                       # TLB misses on read requests
system.cpu00.itb.wrAccesses                 362820727                       # TLB accesses on write requests
system.cpu00.itb.wrMisses                         276                       # TLB misses on write requests
system.cpu00.not_idle_fraction                      1                       # Percentage of non-idle cycles
system.cpu00.numCycles                     1325649416                       # number of cpu cycles simulated
system.cpu00.numWorkItemsCompleted                  0                       # number of work items this cpu completed
system.cpu00.numWorkItemsStarted                    0                       # number of work items this cpu started
system.cpu00.num_busy_cycles               1325649416                       # Number of busy cycles
system.cpu00.num_cc_register_reads          290372312                       # number of times the CC registers were read
system.cpu00.num_cc_register_writes         151345608                       # number of times the CC registers were written
system.cpu00.num_conditional_control_insts     31639727                       # number of instructions that are conditional controls
system.cpu00.num_fp_alu_accesses            188386743                       # Number of float alu accesses
system.cpu00.num_fp_insts                   188386743                       # number of float instructions
system.cpu00.num_fp_register_reads          263638727                       # number of times the floating registers were read
system.cpu00.num_fp_register_writes         153808092                       # number of times the floating registers were written
system.cpu00.num_func_calls                   1577434                       # number of times a function call or return occured
system.cpu00.num_idle_cycles                        0                       # Number of idle cycles
system.cpu00.num_int_alu_accesses           441497387                       # Number of integer alu accesses
system.cpu00.num_int_insts                  441497387                       # number of integer instructions
system.cpu00.num_int_register_reads         938999310                       # number of times the integer registers were read
system.cpu00.num_int_register_writes        320949723                       # number of times the integer registers were written
system.cpu00.num_load_insts                  98424168                       # Number of load instructions
system.cpu00.num_mem_refs                   136551287                       # number of memory refs
system.cpu00.num_store_insts                 38127119                       # Number of store instructions
system.cpu00.num_vec_alu_accesses                   0                       # Number of vector alu accesses
system.cpu00.num_vec_insts                          0                       # number of vector instructions
system.cpu00.num_vec_register_reads                 0                       # number of times the vector registers were read
system.cpu00.num_vec_register_writes                0                       # number of times the vector registers were written
system.cpu00.op_class::No_OpClass             1996375      0.38%      0.38% # Class of executed instruction
system.cpu00.op_class::IntAlu               298984129     56.83%     57.21% # Class of executed instruction
system.cpu00.op_class::IntMult                1049586      0.20%     57.41% # Class of executed instruction
system.cpu00.op_class::IntDiv                11110299      2.11%     59.52% # Class of executed instruction
system.cpu00.op_class::FloatAdd               2446053      0.46%     59.99% # Class of executed instruction
system.cpu00.op_class::FloatCmp                     0      0.00%     59.99% # Class of executed instruction
system.cpu00.op_class::FloatCvt                    96      0.00%     59.99% # Class of executed instruction
system.cpu00.op_class::FloatMult                    0      0.00%     59.99% # Class of executed instruction
system.cpu00.op_class::FloatMultAcc                 0      0.00%     59.99% # Class of executed instruction
system.cpu00.op_class::FloatDiv                     0      0.00%     59.99% # Class of executed instruction
system.cpu00.op_class::FloatMisc                    0      0.00%     59.99% # Class of executed instruction
system.cpu00.op_class::FloatSqrt                    0      0.00%     59.99% # Class of executed instruction
system.cpu00.op_class::SimdAdd                   2110      0.00%     59.99% # Class of executed instruction
system.cpu00.op_class::SimdAddAcc                   0      0.00%     59.99% # Class of executed instruction
system.cpu00.op_class::SimdAlu                4862160      0.92%     60.91% # Class of executed instruction
system.cpu00.op_class::SimdCmp                      0      0.00%     60.91% # Class of executed instruction
system.cpu00.op_class::SimdCvt                   3780      0.00%     60.91% # Class of executed instruction
system.cpu00.op_class::SimdMisc                264480      0.05%     60.96% # Class of executed instruction
system.cpu00.op_class::SimdMult                     0      0.00%     60.96% # Class of executed instruction
system.cpu00.op_class::SimdMultAcc                  0      0.00%     60.96% # Class of executed instruction
system.cpu00.op_class::SimdShift                  914      0.00%     60.97% # Class of executed instruction
system.cpu00.op_class::SimdShiftAcc                 0      0.00%     60.97% # Class of executed instruction
system.cpu00.op_class::SimdDiv                      0      0.00%     60.97% # Class of executed instruction
system.cpu00.op_class::SimdSqrt                     0      0.00%     60.97% # Class of executed instruction
system.cpu00.op_class::SimdFloatAdd          34226736      6.51%     67.47% # Class of executed instruction
system.cpu00.op_class::SimdFloatAlu                 0      0.00%     67.47% # Class of executed instruction
system.cpu00.op_class::SimdFloatCmp                 0      0.00%     67.47% # Class of executed instruction
system.cpu00.op_class::SimdFloatCvt            262195      0.05%     67.52% # Class of executed instruction
system.cpu00.op_class::SimdFloatDiv            346904      0.07%     67.59% # Class of executed instruction
system.cpu00.op_class::SimdFloatMisc                0      0.00%     67.59% # Class of executed instruction
system.cpu00.op_class::SimdFloatMult         33965058      6.46%     74.04% # Class of executed instruction
system.cpu00.op_class::SimdFloatMultAcc             0      0.00%     74.04% # Class of executed instruction
system.cpu00.op_class::SimdFloatSqrt                1      0.00%     74.04% # Class of executed instruction
system.cpu00.op_class::SimdReduceAdd                0      0.00%     74.04% # Class of executed instruction
system.cpu00.op_class::SimdReduceAlu                0      0.00%     74.04% # Class of executed instruction
system.cpu00.op_class::SimdReduceCmp                0      0.00%     74.04% # Class of executed instruction
system.cpu00.op_class::SimdFloatReduceAdd            0      0.00%     74.04% # Class of executed instruction
system.cpu00.op_class::SimdFloatReduceCmp            0      0.00%     74.04% # Class of executed instruction
system.cpu00.op_class::SimdAes                      0      0.00%     74.04% # Class of executed instruction
system.cpu00.op_class::SimdAesMix                   0      0.00%     74.04% # Class of executed instruction
system.cpu00.op_class::SimdSha1Hash                 0      0.00%     74.04% # Class of executed instruction
system.cpu00.op_class::SimdSha1Hash2                0      0.00%     74.04% # Class of executed instruction
system.cpu00.op_class::SimdSha256Hash               0      0.00%     74.04% # Class of executed instruction
system.cpu00.op_class::SimdSha256Hash2              0      0.00%     74.04% # Class of executed instruction
system.cpu00.op_class::SimdShaSigma2                0      0.00%     74.04% # Class of executed instruction
system.cpu00.op_class::SimdShaSigma3                0      0.00%     74.04% # Class of executed instruction
system.cpu00.op_class::SimdPredAlu                  0      0.00%     74.04% # Class of executed instruction
system.cpu00.op_class::MemRead               27450983      5.22%     79.26% # Class of executed instruction
system.cpu00.op_class::MemWrite               3550496      0.67%     79.94% # Class of executed instruction
system.cpu00.op_class::FloatMemRead          70973185     13.49%     93.43% # Class of executed instruction
system.cpu00.op_class::FloatMemWrite         34576623      6.57%    100.00% # Class of executed instruction
system.cpu00.op_class::IprAccess                    0      0.00%    100.00% # Class of executed instruction
system.cpu00.op_class::InstPrefetch                 0      0.00%    100.00% # Class of executed instruction
system.cpu00.op_class::total                526072163                       # Class of executed instruction
system.cpu00.workload.numSyscalls                 140                       # Number of system calls
system.cpu01.committedInsts                         0                       # Number of instructions committed
system.cpu01.committedOps                           0                       # Number of ops (including micro ops) committed
system.cpu01.dtb.rdAccesses                         0                       # TLB accesses on read requests
system.cpu01.dtb.rdMisses                           0                       # TLB misses on read requests
system.cpu01.dtb.wrAccesses                         0                       # TLB accesses on write requests
system.cpu01.dtb.wrMisses                           0                       # TLB misses on write requests
system.cpu01.idle_fraction                          1                       # Percentage of idle cycles
system.cpu01.itb.rdAccesses                         0                       # TLB accesses on read requests
system.cpu01.itb.rdMisses                           0                       # TLB misses on read requests
system.cpu01.itb.wrAccesses                         0                       # TLB accesses on write requests
system.cpu01.itb.wrMisses                           0                       # TLB misses on write requests
system.cpu01.not_idle_fraction                      0                       # Percentage of non-idle cycles
system.cpu01.numCycles                              0                       # number of cpu cycles simulated
system.cpu01.numWorkItemsCompleted                  0                       # number of work items this cpu completed
system.cpu01.numWorkItemsStarted                    0                       # number of work items this cpu started
system.cpu01.num_busy_cycles                        0                       # Number of busy cycles
system.cpu01.num_conditional_control_insts            0                       # number of instructions that are conditional controls
system.cpu01.num_fp_alu_accesses                    0                       # Number of float alu accesses
system.cpu01.num_fp_insts                           0                       # number of float instructions
system.cpu01.num_fp_register_reads                  0                       # number of times the floating registers were read
system.cpu01.num_fp_register_writes                 0                       # number of times the floating registers were written
system.cpu01.num_func_calls                         0                       # number of times a function call or return occured
system.cpu01.num_idle_cycles                        0                       # Number of idle cycles
system.cpu01.num_int_alu_accesses                   0                       # Number of integer alu accesses
system.cpu01.num_int_insts                          0                       # number of integer instructions
system.cpu01.num_int_register_reads                 0                       # number of times the integer registers were read
system.cpu01.num_int_register_writes                0                       # number of times the integer registers were written
system.cpu01.num_load_insts                         0                       # Number of load instructions
system.cpu01.num_mem_refs                           0                       # number of memory refs
system.cpu01.num_store_insts                        0                       # Number of store instructions
system.cpu01.num_vec_alu_accesses                   0                       # Number of vector alu accesses
system.cpu01.num_vec_insts                          0                       # number of vector instructions
system.cpu01.num_vec_register_reads                 0                       # number of times the vector registers were read
system.cpu01.num_vec_register_writes                0                       # number of times the vector registers were written
system.cpu01.op_class::No_OpClass                   0                       # Class of executed instruction
system.cpu01.op_class::IntAlu                       0                       # Class of executed instruction
system.cpu01.op_class::IntMult                      0                       # Class of executed instruction
system.cpu01.op_class::IntDiv                       0                       # Class of executed instruction
system.cpu01.op_class::FloatAdd                     0                       # Class of executed instruction
system.cpu01.op_class::FloatCmp                     0                       # Class of executed instruction
system.cpu01.op_class::FloatCvt                     0                       # Class of executed instruction
system.cpu01.op_class::FloatMult                    0                       # Class of executed instruction
system.cpu01.op_class::FloatMultAcc                 0                       # Class of executed instruction
system.cpu01.op_class::FloatDiv                     0                       # Class of executed instruction
system.cpu01.op_class::FloatMisc                    0                       # Class of executed instruction
system.cpu01.op_class::FloatSqrt                    0                       # Class of executed instruction
system.cpu01.op_class::SimdAdd                      0                       # Class of executed instruction
system.cpu01.op_class::SimdAddAcc                   0                       # Class of executed instruction
system.cpu01.op_class::SimdAlu                      0                       # Class of executed instruction
system.cpu01.op_class::SimdCmp                      0                       # Class of executed instruction
system.cpu01.op_class::SimdCvt                      0                       # Class of executed instruction
system.cpu01.op_class::SimdMisc                     0                       # Class of executed instruction
system.cpu01.op_class::SimdMult                     0                       # Class of executed instruction
system.cpu01.op_class::SimdMultAcc                  0                       # Class of executed instruction
system.cpu01.op_class::SimdShift                    0                       # Class of executed instruction
system.cpu01.op_class::SimdShiftAcc                 0                       # Class of executed instruction
system.cpu01.op_class::SimdDiv                      0                       # Class of executed instruction
system.cpu01.op_class::SimdSqrt                     0                       # Class of executed instruction
system.cpu01.op_class::SimdFloatAdd                 0                       # Class of executed instruction
system.cpu01.op_class::SimdFloatAlu                 0                       # Class of executed instruction
system.cpu01.op_class::SimdFloatCmp                 0                       # Class of executed instruction
system.cpu01.op_class::SimdFloatCvt                 0                       # Class of executed instruction
system.cpu01.op_class::SimdFloatDiv                 0                       # Class of executed instruction
system.cpu01.op_class::SimdFloatMisc                0                       # Class of executed instruction
system.cpu01.op_class::SimdFloatMult                0                       # Class of executed instruction
system.cpu01.op_class::SimdFloatMultAcc             0                       # Class of executed instruction
system.cpu01.op_class::SimdFloatSqrt                0                       # Class of executed instruction
system.cpu01.op_class::SimdReduceAdd                0                       # Class of executed instruction
system.cpu01.op_class::SimdReduceAlu                0                       # Class of executed instruction
system.cpu01.op_class::SimdReduceCmp                0                       # Class of executed instruction
system.cpu01.op_class::SimdFloatReduceAdd            0                       # Class of executed instruction
system.cpu01.op_class::SimdFloatReduceCmp            0                       # Class of executed instruction
system.cpu01.op_class::SimdAes                      0                       # Class of executed instruction
system.cpu01.op_class::SimdAesMix                   0                       # Class of executed instruction
system.cpu01.op_class::SimdSha1Hash                 0                       # Class of executed instruction
system.cpu01.op_class::SimdSha1Hash2                0                       # Class of executed instruction
system.cpu01.op_class::SimdSha256Hash               0                       # Class of executed instruction
system.cpu01.op_class::SimdSha256Hash2              0                       # Class of executed instruction
system.cpu01.op_class::SimdShaSigma2                0                       # Class of executed instruction
system.cpu01.op_class::SimdShaSigma3                0                       # Class of executed instruction
system.cpu01.op_class::SimdPredAlu                  0                       # Class of executed instruction
system.cpu01.op_class::MemRead                      0                       # Class of executed instruction
system.cpu01.op_class::MemWrite                     0                       # Class of executed instruction
system.cpu01.op_class::FloatMemRead                 0                       # Class of executed instruction
system.cpu01.op_class::FloatMemWrite                0                       # Class of executed instruction
system.cpu01.op_class::IprAccess                    0                       # Class of executed instruction
system.cpu01.op_class::InstPrefetch                 0                       # Class of executed instruction
system.cpu01.op_class::total                        0                       # Class of executed instruction
system.cpu02.committedInsts                         0                       # Number of instructions committed
system.cpu02.committedOps                           0                       # Number of ops (including micro ops) committed
system.cpu02.dtb.rdAccesses                         0                       # TLB accesses on read requests
system.cpu02.dtb.rdMisses                           0                       # TLB misses on read requests
system.cpu02.dtb.wrAccesses                         0                       # TLB accesses on write requests
system.cpu02.dtb.wrMisses                           0                       # TLB misses on write requests
system.cpu02.idle_fraction                          1                       # Percentage of idle cycles
system.cpu02.itb.rdAccesses                         0                       # TLB accesses on read requests
system.cpu02.itb.rdMisses                           0                       # TLB misses on read requests
system.cpu02.itb.wrAccesses                         0                       # TLB accesses on write requests
system.cpu02.itb.wrMisses                           0                       # TLB misses on write requests
system.cpu02.not_idle_fraction                      0                       # Percentage of non-idle cycles
system.cpu02.numCycles                              0                       # number of cpu cycles simulated
system.cpu02.numWorkItemsCompleted                  0                       # number of work items this cpu completed
system.cpu02.numWorkItemsStarted                    0                       # number of work items this cpu started
system.cpu02.num_busy_cycles                        0                       # Number of busy cycles
system.cpu02.num_conditional_control_insts            0                       # number of instructions that are conditional controls
system.cpu02.num_fp_alu_accesses                    0                       # Number of float alu accesses
system.cpu02.num_fp_insts                           0                       # number of float instructions
system.cpu02.num_fp_register_reads                  0                       # number of times the floating registers were read
system.cpu02.num_fp_register_writes                 0                       # number of times the floating registers were written
system.cpu02.num_func_calls                         0                       # number of times a function call or return occured
system.cpu02.num_idle_cycles                        0                       # Number of idle cycles
system.cpu02.num_int_alu_accesses                   0                       # Number of integer alu accesses
system.cpu02.num_int_insts                          0                       # number of integer instructions
system.cpu02.num_int_register_reads                 0                       # number of times the integer registers were read
system.cpu02.num_int_register_writes                0                       # number of times the integer registers were written
system.cpu02.num_load_insts                         0                       # Number of load instructions
system.cpu02.num_mem_refs                           0                       # number of memory refs
system.cpu02.num_store_insts                        0                       # Number of store instructions
system.cpu02.num_vec_alu_accesses                   0                       # Number of vector alu accesses
system.cpu02.num_vec_insts                          0                       # number of vector instructions
system.cpu02.num_vec_register_reads                 0                       # number of times the vector registers were read
system.cpu02.num_vec_register_writes                0                       # number of times the vector registers were written
system.cpu02.op_class::No_OpClass                   0                       # Class of executed instruction
system.cpu02.op_class::IntAlu                       0                       # Class of executed instruction
system.cpu02.op_class::IntMult                      0                       # Class of executed instruction
system.cpu02.op_class::IntDiv                       0                       # Class of executed instruction
system.cpu02.op_class::FloatAdd                     0                       # Class of executed instruction
system.cpu02.op_class::FloatCmp                     0                       # Class of executed instruction
system.cpu02.op_class::FloatCvt                     0                       # Class of executed instruction
system.cpu02.op_class::FloatMult                    0                       # Class of executed instruction
system.cpu02.op_class::FloatMultAcc                 0                       # Class of executed instruction
system.cpu02.op_class::FloatDiv                     0                       # Class of executed instruction
system.cpu02.op_class::FloatMisc                    0                       # Class of executed instruction
system.cpu02.op_class::FloatSqrt                    0                       # Class of executed instruction
system.cpu02.op_class::SimdAdd                      0                       # Class of executed instruction
system.cpu02.op_class::SimdAddAcc                   0                       # Class of executed instruction
system.cpu02.op_class::SimdAlu                      0                       # Class of executed instruction
system.cpu02.op_class::SimdCmp                      0                       # Class of executed instruction
system.cpu02.op_class::SimdCvt                      0                       # Class of executed instruction
system.cpu02.op_class::SimdMisc                     0                       # Class of executed instruction
system.cpu02.op_class::SimdMult                     0                       # Class of executed instruction
system.cpu02.op_class::SimdMultAcc                  0                       # Class of executed instruction
system.cpu02.op_class::SimdShift                    0                       # Class of executed instruction
system.cpu02.op_class::SimdShiftAcc                 0                       # Class of executed instruction
system.cpu02.op_class::SimdDiv                      0                       # Class of executed instruction
system.cpu02.op_class::SimdSqrt                     0                       # Class of executed instruction
system.cpu02.op_class::SimdFloatAdd                 0                       # Class of executed instruction
system.cpu02.op_class::SimdFloatAlu                 0                       # Class of executed instruction
system.cpu02.op_class::SimdFloatCmp                 0                       # Class of executed instruction
system.cpu02.op_class::SimdFloatCvt                 0                       # Class of executed instruction
system.cpu02.op_class::SimdFloatDiv                 0                       # Class of executed instruction
system.cpu02.op_class::SimdFloatMisc                0                       # Class of executed instruction
system.cpu02.op_class::SimdFloatMult                0                       # Class of executed instruction
system.cpu02.op_class::SimdFloatMultAcc             0                       # Class of executed instruction
system.cpu02.op_class::SimdFloatSqrt                0                       # Class of executed instruction
system.cpu02.op_class::SimdReduceAdd                0                       # Class of executed instruction
system.cpu02.op_class::SimdReduceAlu                0                       # Class of executed instruction
system.cpu02.op_class::SimdReduceCmp                0                       # Class of executed instruction
system.cpu02.op_class::SimdFloatReduceAdd            0                       # Class of executed instruction
system.cpu02.op_class::SimdFloatReduceCmp            0                       # Class of executed instruction
system.cpu02.op_class::SimdAes                      0                       # Class of executed instruction
system.cpu02.op_class::SimdAesMix                   0                       # Class of executed instruction
system.cpu02.op_class::SimdSha1Hash                 0                       # Class of executed instruction
system.cpu02.op_class::SimdSha1Hash2                0                       # Class of executed instruction
system.cpu02.op_class::SimdSha256Hash               0                       # Class of executed instruction
system.cpu02.op_class::SimdSha256Hash2              0                       # Class of executed instruction
system.cpu02.op_class::SimdShaSigma2                0                       # Class of executed instruction
system.cpu02.op_class::SimdShaSigma3                0                       # Class of executed instruction
system.cpu02.op_class::SimdPredAlu                  0                       # Class of executed instruction
system.cpu02.op_class::MemRead                      0                       # Class of executed instruction
system.cpu02.op_class::MemWrite                     0                       # Class of executed instruction
system.cpu02.op_class::FloatMemRead                 0                       # Class of executed instruction
system.cpu02.op_class::FloatMemWrite                0                       # Class of executed instruction
system.cpu02.op_class::IprAccess                    0                       # Class of executed instruction
system.cpu02.op_class::InstPrefetch                 0                       # Class of executed instruction
system.cpu02.op_class::total                        0                       # Class of executed instruction
system.cpu03.committedInsts                         0                       # Number of instructions committed
system.cpu03.committedOps                           0                       # Number of ops (including micro ops) committed
system.cpu03.dtb.rdAccesses                         0                       # TLB accesses on read requests
system.cpu03.dtb.rdMisses                           0                       # TLB misses on read requests
system.cpu03.dtb.wrAccesses                         0                       # TLB accesses on write requests
system.cpu03.dtb.wrMisses                           0                       # TLB misses on write requests
system.cpu03.idle_fraction                          1                       # Percentage of idle cycles
system.cpu03.itb.rdAccesses                         0                       # TLB accesses on read requests
system.cpu03.itb.rdMisses                           0                       # TLB misses on read requests
system.cpu03.itb.wrAccesses                         0                       # TLB accesses on write requests
system.cpu03.itb.wrMisses                           0                       # TLB misses on write requests
system.cpu03.not_idle_fraction                      0                       # Percentage of non-idle cycles
system.cpu03.numCycles                              0                       # number of cpu cycles simulated
system.cpu03.numWorkItemsCompleted                  0                       # number of work items this cpu completed
system.cpu03.numWorkItemsStarted                    0                       # number of work items this cpu started
system.cpu03.num_busy_cycles                        0                       # Number of busy cycles
system.cpu03.num_conditional_control_insts            0                       # number of instructions that are conditional controls
system.cpu03.num_fp_alu_accesses                    0                       # Number of float alu accesses
system.cpu03.num_fp_insts                           0                       # number of float instructions
system.cpu03.num_fp_register_reads                  0                       # number of times the floating registers were read
system.cpu03.num_fp_register_writes                 0                       # number of times the floating registers were written
system.cpu03.num_func_calls                         0                       # number of times a function call or return occured
system.cpu03.num_idle_cycles                        0                       # Number of idle cycles
system.cpu03.num_int_alu_accesses                   0                       # Number of integer alu accesses
system.cpu03.num_int_insts                          0                       # number of integer instructions
system.cpu03.num_int_register_reads                 0                       # number of times the integer registers were read
system.cpu03.num_int_register_writes                0                       # number of times the integer registers were written
system.cpu03.num_load_insts                         0                       # Number of load instructions
system.cpu03.num_mem_refs                           0                       # number of memory refs
system.cpu03.num_store_insts                        0                       # Number of store instructions
system.cpu03.num_vec_alu_accesses                   0                       # Number of vector alu accesses
system.cpu03.num_vec_insts                          0                       # number of vector instructions
system.cpu03.num_vec_register_reads                 0                       # number of times the vector registers were read
system.cpu03.num_vec_register_writes                0                       # number of times the vector registers were written
system.cpu03.op_class::No_OpClass                   0                       # Class of executed instruction
system.cpu03.op_class::IntAlu                       0                       # Class of executed instruction
system.cpu03.op_class::IntMult                      0                       # Class of executed instruction
system.cpu03.op_class::IntDiv                       0                       # Class of executed instruction
system.cpu03.op_class::FloatAdd                     0                       # Class of executed instruction
system.cpu03.op_class::FloatCmp                     0                       # Class of executed instruction
system.cpu03.op_class::FloatCvt                     0                       # Class of executed instruction
system.cpu03.op_class::FloatMult                    0                       # Class of executed instruction
system.cpu03.op_class::FloatMultAcc                 0                       # Class of executed instruction
system.cpu03.op_class::FloatDiv                     0                       # Class of executed instruction
system.cpu03.op_class::FloatMisc                    0                       # Class of executed instruction
system.cpu03.op_class::FloatSqrt                    0                       # Class of executed instruction
system.cpu03.op_class::SimdAdd                      0                       # Class of executed instruction
system.cpu03.op_class::SimdAddAcc                   0                       # Class of executed instruction
system.cpu03.op_class::SimdAlu                      0                       # Class of executed instruction
system.cpu03.op_class::SimdCmp                      0                       # Class of executed instruction
system.cpu03.op_class::SimdCvt                      0                       # Class of executed instruction
system.cpu03.op_class::SimdMisc                     0                       # Class of executed instruction
system.cpu03.op_class::SimdMult                     0                       # Class of executed instruction
system.cpu03.op_class::SimdMultAcc                  0                       # Class of executed instruction
system.cpu03.op_class::SimdShift                    0                       # Class of executed instruction
system.cpu03.op_class::SimdShiftAcc                 0                       # Class of executed instruction
system.cpu03.op_class::SimdDiv                      0                       # Class of executed instruction
system.cpu03.op_class::SimdSqrt                     0                       # Class of executed instruction
system.cpu03.op_class::SimdFloatAdd                 0                       # Class of executed instruction
system.cpu03.op_class::SimdFloatAlu                 0                       # Class of executed instruction
system.cpu03.op_class::SimdFloatCmp                 0                       # Class of executed instruction
system.cpu03.op_class::SimdFloatCvt                 0                       # Class of executed instruction
system.cpu03.op_class::SimdFloatDiv                 0                       # Class of executed instruction
system.cpu03.op_class::SimdFloatMisc                0                       # Class of executed instruction
system.cpu03.op_class::SimdFloatMult                0                       # Class of executed instruction
system.cpu03.op_class::SimdFloatMultAcc             0                       # Class of executed instruction
system.cpu03.op_class::SimdFloatSqrt                0                       # Class of executed instruction
system.cpu03.op_class::SimdReduceAdd                0                       # Class of executed instruction
system.cpu03.op_class::SimdReduceAlu                0                       # Class of executed instruction
system.cpu03.op_class::SimdReduceCmp                0                       # Class of executed instruction
system.cpu03.op_class::SimdFloatReduceAdd            0                       # Class of executed instruction
system.cpu03.op_class::SimdFloatReduceCmp            0                       # Class of executed instruction
system.cpu03.op_class::SimdAes                      0                       # Class of executed instruction
system.cpu03.op_class::SimdAesMix                   0                       # Class of executed instruction
system.cpu03.op_class::SimdSha1Hash                 0                       # Class of executed instruction
system.cpu03.op_class::SimdSha1Hash2                0                       # Class of executed instruction
system.cpu03.op_class::SimdSha256Hash               0                       # Class of executed instruction
system.cpu03.op_class::SimdSha256Hash2              0                       # Class of executed instruction
system.cpu03.op_class::SimdShaSigma2                0                       # Class of executed instruction
system.cpu03.op_class::SimdShaSigma3                0                       # Class of executed instruction
system.cpu03.op_class::SimdPredAlu                  0                       # Class of executed instruction
system.cpu03.op_class::MemRead                      0                       # Class of executed instruction
system.cpu03.op_class::MemWrite                     0                       # Class of executed instruction
system.cpu03.op_class::FloatMemRead                 0                       # Class of executed instruction
system.cpu03.op_class::FloatMemWrite                0                       # Class of executed instruction
system.cpu03.op_class::IprAccess                    0                       # Class of executed instruction
system.cpu03.op_class::InstPrefetch                 0                       # Class of executed instruction
system.cpu03.op_class::total                        0                       # Class of executed instruction
system.cpu04.committedInsts                         0                       # Number of instructions committed
system.cpu04.committedOps                           0                       # Number of ops (including micro ops) committed
system.cpu04.dtb.rdAccesses                         0                       # TLB accesses on read requests
system.cpu04.dtb.rdMisses                           0                       # TLB misses on read requests
system.cpu04.dtb.wrAccesses                         0                       # TLB accesses on write requests
system.cpu04.dtb.wrMisses                           0                       # TLB misses on write requests
system.cpu04.idle_fraction                          1                       # Percentage of idle cycles
system.cpu04.itb.rdAccesses                         0                       # TLB accesses on read requests
system.cpu04.itb.rdMisses                           0                       # TLB misses on read requests
system.cpu04.itb.wrAccesses                         0                       # TLB accesses on write requests
system.cpu04.itb.wrMisses                           0                       # TLB misses on write requests
system.cpu04.not_idle_fraction                      0                       # Percentage of non-idle cycles
system.cpu04.numCycles                              0                       # number of cpu cycles simulated
system.cpu04.numWorkItemsCompleted                  0                       # number of work items this cpu completed
system.cpu04.numWorkItemsStarted                    0                       # number of work items this cpu started
system.cpu04.num_busy_cycles                        0                       # Number of busy cycles
system.cpu04.num_conditional_control_insts            0                       # number of instructions that are conditional controls
system.cpu04.num_fp_alu_accesses                    0                       # Number of float alu accesses
system.cpu04.num_fp_insts                           0                       # number of float instructions
system.cpu04.num_fp_register_reads                  0                       # number of times the floating registers were read
system.cpu04.num_fp_register_writes                 0                       # number of times the floating registers were written
system.cpu04.num_func_calls                         0                       # number of times a function call or return occured
system.cpu04.num_idle_cycles                        0                       # Number of idle cycles
system.cpu04.num_int_alu_accesses                   0                       # Number of integer alu accesses
system.cpu04.num_int_insts                          0                       # number of integer instructions
system.cpu04.num_int_register_reads                 0                       # number of times the integer registers were read
system.cpu04.num_int_register_writes                0                       # number of times the integer registers were written
system.cpu04.num_load_insts                         0                       # Number of load instructions
system.cpu04.num_mem_refs                           0                       # number of memory refs
system.cpu04.num_store_insts                        0                       # Number of store instructions
system.cpu04.num_vec_alu_accesses                   0                       # Number of vector alu accesses
system.cpu04.num_vec_insts                          0                       # number of vector instructions
system.cpu04.num_vec_register_reads                 0                       # number of times the vector registers were read
system.cpu04.num_vec_register_writes                0                       # number of times the vector registers were written
system.cpu04.op_class::No_OpClass                   0                       # Class of executed instruction
system.cpu04.op_class::IntAlu                       0                       # Class of executed instruction
system.cpu04.op_class::IntMult                      0                       # Class of executed instruction
system.cpu04.op_class::IntDiv                       0                       # Class of executed instruction
system.cpu04.op_class::FloatAdd                     0                       # Class of executed instruction
system.cpu04.op_class::FloatCmp                     0                       # Class of executed instruction
system.cpu04.op_class::FloatCvt                     0                       # Class of executed instruction
system.cpu04.op_class::FloatMult                    0                       # Class of executed instruction
system.cpu04.op_class::FloatMultAcc                 0                       # Class of executed instruction
system.cpu04.op_class::FloatDiv                     0                       # Class of executed instruction
system.cpu04.op_class::FloatMisc                    0                       # Class of executed instruction
system.cpu04.op_class::FloatSqrt                    0                       # Class of executed instruction
system.cpu04.op_class::SimdAdd                      0                       # Class of executed instruction
system.cpu04.op_class::SimdAddAcc                   0                       # Class of executed instruction
system.cpu04.op_class::SimdAlu                      0                       # Class of executed instruction
system.cpu04.op_class::SimdCmp                      0                       # Class of executed instruction
system.cpu04.op_class::SimdCvt                      0                       # Class of executed instruction
system.cpu04.op_class::SimdMisc                     0                       # Class of executed instruction
system.cpu04.op_class::SimdMult                     0                       # Class of executed instruction
system.cpu04.op_class::SimdMultAcc                  0                       # Class of executed instruction
system.cpu04.op_class::SimdShift                    0                       # Class of executed instruction
system.cpu04.op_class::SimdShiftAcc                 0                       # Class of executed instruction
system.cpu04.op_class::SimdDiv                      0                       # Class of executed instruction
system.cpu04.op_class::SimdSqrt                     0                       # Class of executed instruction
system.cpu04.op_class::SimdFloatAdd                 0                       # Class of executed instruction
system.cpu04.op_class::SimdFloatAlu                 0                       # Class of executed instruction
system.cpu04.op_class::SimdFloatCmp                 0                       # Class of executed instruction
system.cpu04.op_class::SimdFloatCvt                 0                       # Class of executed instruction
system.cpu04.op_class::SimdFloatDiv                 0                       # Class of executed instruction
system.cpu04.op_class::SimdFloatMisc                0                       # Class of executed instruction
system.cpu04.op_class::SimdFloatMult                0                       # Class of executed instruction
system.cpu04.op_class::SimdFloatMultAcc             0                       # Class of executed instruction
system.cpu04.op_class::SimdFloatSqrt                0                       # Class of executed instruction
system.cpu04.op_class::SimdReduceAdd                0                       # Class of executed instruction
system.cpu04.op_class::SimdReduceAlu                0                       # Class of executed instruction
system.cpu04.op_class::SimdReduceCmp                0                       # Class of executed instruction
system.cpu04.op_class::SimdFloatReduceAdd            0                       # Class of executed instruction
system.cpu04.op_class::SimdFloatReduceCmp            0                       # Class of executed instruction
system.cpu04.op_class::SimdAes                      0                       # Class of executed instruction
system.cpu04.op_class::SimdAesMix                   0                       # Class of executed instruction
system.cpu04.op_class::SimdSha1Hash                 0                       # Class of executed instruction
system.cpu04.op_class::SimdSha1Hash2                0                       # Class of executed instruction
system.cpu04.op_class::SimdSha256Hash               0                       # Class of executed instruction
system.cpu04.op_class::SimdSha256Hash2              0                       # Class of executed instruction
system.cpu04.op_class::SimdShaSigma2                0                       # Class of executed instruction
system.cpu04.op_class::SimdShaSigma3                0                       # Class of executed instruction
system.cpu04.op_class::SimdPredAlu                  0                       # Class of executed instruction
system.cpu04.op_class::MemRead                      0                       # Class of executed instruction
system.cpu04.op_class::MemWrite                     0                       # Class of executed instruction
system.cpu04.op_class::FloatMemRead                 0                       # Class of executed instruction
system.cpu04.op_class::FloatMemWrite                0                       # Class of executed instruction
system.cpu04.op_class::IprAccess                    0                       # Class of executed instruction
system.cpu04.op_class::InstPrefetch                 0                       # Class of executed instruction
system.cpu04.op_class::total                        0                       # Class of executed instruction
system.cpu05.committedInsts                         0                       # Number of instructions committed
system.cpu05.committedOps                           0                       # Number of ops (including micro ops) committed
system.cpu05.dtb.rdAccesses                         0                       # TLB accesses on read requests
system.cpu05.dtb.rdMisses                           0                       # TLB misses on read requests
system.cpu05.dtb.wrAccesses                         0                       # TLB accesses on write requests
system.cpu05.dtb.wrMisses                           0                       # TLB misses on write requests
system.cpu05.idle_fraction                          1                       # Percentage of idle cycles
system.cpu05.itb.rdAccesses                         0                       # TLB accesses on read requests
system.cpu05.itb.rdMisses                           0                       # TLB misses on read requests
system.cpu05.itb.wrAccesses                         0                       # TLB accesses on write requests
system.cpu05.itb.wrMisses                           0                       # TLB misses on write requests
system.cpu05.not_idle_fraction                      0                       # Percentage of non-idle cycles
system.cpu05.numCycles                              0                       # number of cpu cycles simulated
system.cpu05.numWorkItemsCompleted                  0                       # number of work items this cpu completed
system.cpu05.numWorkItemsStarted                    0                       # number of work items this cpu started
system.cpu05.num_busy_cycles                        0                       # Number of busy cycles
system.cpu05.num_conditional_control_insts            0                       # number of instructions that are conditional controls
system.cpu05.num_fp_alu_accesses                    0                       # Number of float alu accesses
system.cpu05.num_fp_insts                           0                       # number of float instructions
system.cpu05.num_fp_register_reads                  0                       # number of times the floating registers were read
system.cpu05.num_fp_register_writes                 0                       # number of times the floating registers were written
system.cpu05.num_func_calls                         0                       # number of times a function call or return occured
system.cpu05.num_idle_cycles                        0                       # Number of idle cycles
system.cpu05.num_int_alu_accesses                   0                       # Number of integer alu accesses
system.cpu05.num_int_insts                          0                       # number of integer instructions
system.cpu05.num_int_register_reads                 0                       # number of times the integer registers were read
system.cpu05.num_int_register_writes                0                       # number of times the integer registers were written
system.cpu05.num_load_insts                         0                       # Number of load instructions
system.cpu05.num_mem_refs                           0                       # number of memory refs
system.cpu05.num_store_insts                        0                       # Number of store instructions
system.cpu05.num_vec_alu_accesses                   0                       # Number of vector alu accesses
system.cpu05.num_vec_insts                          0                       # number of vector instructions
system.cpu05.num_vec_register_reads                 0                       # number of times the vector registers were read
system.cpu05.num_vec_register_writes                0                       # number of times the vector registers were written
system.cpu05.op_class::No_OpClass                   0                       # Class of executed instruction
system.cpu05.op_class::IntAlu                       0                       # Class of executed instruction
system.cpu05.op_class::IntMult                      0                       # Class of executed instruction
system.cpu05.op_class::IntDiv                       0                       # Class of executed instruction
system.cpu05.op_class::FloatAdd                     0                       # Class of executed instruction
system.cpu05.op_class::FloatCmp                     0                       # Class of executed instruction
system.cpu05.op_class::FloatCvt                     0                       # Class of executed instruction
system.cpu05.op_class::FloatMult                    0                       # Class of executed instruction
system.cpu05.op_class::FloatMultAcc                 0                       # Class of executed instruction
system.cpu05.op_class::FloatDiv                     0                       # Class of executed instruction
system.cpu05.op_class::FloatMisc                    0                       # Class of executed instruction
system.cpu05.op_class::FloatSqrt                    0                       # Class of executed instruction
system.cpu05.op_class::SimdAdd                      0                       # Class of executed instruction
system.cpu05.op_class::SimdAddAcc                   0                       # Class of executed instruction
system.cpu05.op_class::SimdAlu                      0                       # Class of executed instruction
system.cpu05.op_class::SimdCmp                      0                       # Class of executed instruction
system.cpu05.op_class::SimdCvt                      0                       # Class of executed instruction
system.cpu05.op_class::SimdMisc                     0                       # Class of executed instruction
system.cpu05.op_class::SimdMult                     0                       # Class of executed instruction
system.cpu05.op_class::SimdMultAcc                  0                       # Class of executed instruction
system.cpu05.op_class::SimdShift                    0                       # Class of executed instruction
system.cpu05.op_class::SimdShiftAcc                 0                       # Class of executed instruction
system.cpu05.op_class::SimdDiv                      0                       # Class of executed instruction
system.cpu05.op_class::SimdSqrt                     0                       # Class of executed instruction
system.cpu05.op_class::SimdFloatAdd                 0                       # Class of executed instruction
system.cpu05.op_class::SimdFloatAlu                 0                       # Class of executed instruction
system.cpu05.op_class::SimdFloatCmp                 0                       # Class of executed instruction
system.cpu05.op_class::SimdFloatCvt                 0                       # Class of executed instruction
system.cpu05.op_class::SimdFloatDiv                 0                       # Class of executed instruction
system.cpu05.op_class::SimdFloatMisc                0                       # Class of executed instruction
system.cpu05.op_class::SimdFloatMult                0                       # Class of executed instruction
system.cpu05.op_class::SimdFloatMultAcc             0                       # Class of executed instruction
system.cpu05.op_class::SimdFloatSqrt                0                       # Class of executed instruction
system.cpu05.op_class::SimdReduceAdd                0                       # Class of executed instruction
system.cpu05.op_class::SimdReduceAlu                0                       # Class of executed instruction
system.cpu05.op_class::SimdReduceCmp                0                       # Class of executed instruction
system.cpu05.op_class::SimdFloatReduceAdd            0                       # Class of executed instruction
system.cpu05.op_class::SimdFloatReduceCmp            0                       # Class of executed instruction
system.cpu05.op_class::SimdAes                      0                       # Class of executed instruction
system.cpu05.op_class::SimdAesMix                   0                       # Class of executed instruction
system.cpu05.op_class::SimdSha1Hash                 0                       # Class of executed instruction
system.cpu05.op_class::SimdSha1Hash2                0                       # Class of executed instruction
system.cpu05.op_class::SimdSha256Hash               0                       # Class of executed instruction
system.cpu05.op_class::SimdSha256Hash2              0                       # Class of executed instruction
system.cpu05.op_class::SimdShaSigma2                0                       # Class of executed instruction
system.cpu05.op_class::SimdShaSigma3                0                       # Class of executed instruction
system.cpu05.op_class::SimdPredAlu                  0                       # Class of executed instruction
system.cpu05.op_class::MemRead                      0                       # Class of executed instruction
system.cpu05.op_class::MemWrite                     0                       # Class of executed instruction
system.cpu05.op_class::FloatMemRead                 0                       # Class of executed instruction
system.cpu05.op_class::FloatMemWrite                0                       # Class of executed instruction
system.cpu05.op_class::IprAccess                    0                       # Class of executed instruction
system.cpu05.op_class::InstPrefetch                 0                       # Class of executed instruction
system.cpu05.op_class::total                        0                       # Class of executed instruction
system.cpu06.committedInsts                         0                       # Number of instructions committed
system.cpu06.committedOps                           0                       # Number of ops (including micro ops) committed
system.cpu06.dtb.rdAccesses                         0                       # TLB accesses on read requests
system.cpu06.dtb.rdMisses                           0                       # TLB misses on read requests
system.cpu06.dtb.wrAccesses                         0                       # TLB accesses on write requests
system.cpu06.dtb.wrMisses                           0                       # TLB misses on write requests
system.cpu06.idle_fraction                          1                       # Percentage of idle cycles
system.cpu06.itb.rdAccesses                         0                       # TLB accesses on read requests
system.cpu06.itb.rdMisses                           0                       # TLB misses on read requests
system.cpu06.itb.wrAccesses                         0                       # TLB accesses on write requests
system.cpu06.itb.wrMisses                           0                       # TLB misses on write requests
system.cpu06.not_idle_fraction                      0                       # Percentage of non-idle cycles
system.cpu06.numCycles                              0                       # number of cpu cycles simulated
system.cpu06.numWorkItemsCompleted                  0                       # number of work items this cpu completed
system.cpu06.numWorkItemsStarted                    0                       # number of work items this cpu started
system.cpu06.num_busy_cycles                        0                       # Number of busy cycles
system.cpu06.num_conditional_control_insts            0                       # number of instructions that are conditional controls
system.cpu06.num_fp_alu_accesses                    0                       # Number of float alu accesses
system.cpu06.num_fp_insts                           0                       # number of float instructions
system.cpu06.num_fp_register_reads                  0                       # number of times the floating registers were read
system.cpu06.num_fp_register_writes                 0                       # number of times the floating registers were written
system.cpu06.num_func_calls                         0                       # number of times a function call or return occured
system.cpu06.num_idle_cycles                        0                       # Number of idle cycles
system.cpu06.num_int_alu_accesses                   0                       # Number of integer alu accesses
system.cpu06.num_int_insts                          0                       # number of integer instructions
system.cpu06.num_int_register_reads                 0                       # number of times the integer registers were read
system.cpu06.num_int_register_writes                0                       # number of times the integer registers were written
system.cpu06.num_load_insts                         0                       # Number of load instructions
system.cpu06.num_mem_refs                           0                       # number of memory refs
system.cpu06.num_store_insts                        0                       # Number of store instructions
system.cpu06.num_vec_alu_accesses                   0                       # Number of vector alu accesses
system.cpu06.num_vec_insts                          0                       # number of vector instructions
system.cpu06.num_vec_register_reads                 0                       # number of times the vector registers were read
system.cpu06.num_vec_register_writes                0                       # number of times the vector registers were written
system.cpu06.op_class::No_OpClass                   0                       # Class of executed instruction
system.cpu06.op_class::IntAlu                       0                       # Class of executed instruction
system.cpu06.op_class::IntMult                      0                       # Class of executed instruction
system.cpu06.op_class::IntDiv                       0                       # Class of executed instruction
system.cpu06.op_class::FloatAdd                     0                       # Class of executed instruction
system.cpu06.op_class::FloatCmp                     0                       # Class of executed instruction
system.cpu06.op_class::FloatCvt                     0                       # Class of executed instruction
system.cpu06.op_class::FloatMult                    0                       # Class of executed instruction
system.cpu06.op_class::FloatMultAcc                 0                       # Class of executed instruction
system.cpu06.op_class::FloatDiv                     0                       # Class of executed instruction
system.cpu06.op_class::FloatMisc                    0                       # Class of executed instruction
system.cpu06.op_class::FloatSqrt                    0                       # Class of executed instruction
system.cpu06.op_class::SimdAdd                      0                       # Class of executed instruction
system.cpu06.op_class::SimdAddAcc                   0                       # Class of executed instruction
system.cpu06.op_class::SimdAlu                      0                       # Class of executed instruction
system.cpu06.op_class::SimdCmp                      0                       # Class of executed instruction
system.cpu06.op_class::SimdCvt                      0                       # Class of executed instruction
system.cpu06.op_class::SimdMisc                     0                       # Class of executed instruction
system.cpu06.op_class::SimdMult                     0                       # Class of executed instruction
system.cpu06.op_class::SimdMultAcc                  0                       # Class of executed instruction
system.cpu06.op_class::SimdShift                    0                       # Class of executed instruction
system.cpu06.op_class::SimdShiftAcc                 0                       # Class of executed instruction
system.cpu06.op_class::SimdDiv                      0                       # Class of executed instruction
system.cpu06.op_class::SimdSqrt                     0                       # Class of executed instruction
system.cpu06.op_class::SimdFloatAdd                 0                       # Class of executed instruction
system.cpu06.op_class::SimdFloatAlu                 0                       # Class of executed instruction
system.cpu06.op_class::SimdFloatCmp                 0                       # Class of executed instruction
system.cpu06.op_class::SimdFloatCvt                 0                       # Class of executed instruction
system.cpu06.op_class::SimdFloatDiv                 0                       # Class of executed instruction
system.cpu06.op_class::SimdFloatMisc                0                       # Class of executed instruction
system.cpu06.op_class::SimdFloatMult                0                       # Class of executed instruction
system.cpu06.op_class::SimdFloatMultAcc             0                       # Class of executed instruction
system.cpu06.op_class::SimdFloatSqrt                0                       # Class of executed instruction
system.cpu06.op_class::SimdReduceAdd                0                       # Class of executed instruction
system.cpu06.op_class::SimdReduceAlu                0                       # Class of executed instruction
system.cpu06.op_class::SimdReduceCmp                0                       # Class of executed instruction
system.cpu06.op_class::SimdFloatReduceAdd            0                       # Class of executed instruction
system.cpu06.op_class::SimdFloatReduceCmp            0                       # Class of executed instruction
system.cpu06.op_class::SimdAes                      0                       # Class of executed instruction
system.cpu06.op_class::SimdAesMix                   0                       # Class of executed instruction
system.cpu06.op_class::SimdSha1Hash                 0                       # Class of executed instruction
system.cpu06.op_class::SimdSha1Hash2                0                       # Class of executed instruction
system.cpu06.op_class::SimdSha256Hash               0                       # Class of executed instruction
system.cpu06.op_class::SimdSha256Hash2              0                       # Class of executed instruction
system.cpu06.op_class::SimdShaSigma2                0                       # Class of executed instruction
system.cpu06.op_class::SimdShaSigma3                0                       # Class of executed instruction
system.cpu06.op_class::SimdPredAlu                  0                       # Class of executed instruction
system.cpu06.op_class::MemRead                      0                       # Class of executed instruction
system.cpu06.op_class::MemWrite                     0                       # Class of executed instruction
system.cpu06.op_class::FloatMemRead                 0                       # Class of executed instruction
system.cpu06.op_class::FloatMemWrite                0                       # Class of executed instruction
system.cpu06.op_class::IprAccess                    0                       # Class of executed instruction
system.cpu06.op_class::InstPrefetch                 0                       # Class of executed instruction
system.cpu06.op_class::total                        0                       # Class of executed instruction
system.cpu07.committedInsts                         0                       # Number of instructions committed
system.cpu07.committedOps                           0                       # Number of ops (including micro ops) committed
system.cpu07.dtb.rdAccesses                         0                       # TLB accesses on read requests
system.cpu07.dtb.rdMisses                           0                       # TLB misses on read requests
system.cpu07.dtb.wrAccesses                         0                       # TLB accesses on write requests
system.cpu07.dtb.wrMisses                           0                       # TLB misses on write requests
system.cpu07.idle_fraction                          1                       # Percentage of idle cycles
system.cpu07.itb.rdAccesses                         0                       # TLB accesses on read requests
system.cpu07.itb.rdMisses                           0                       # TLB misses on read requests
system.cpu07.itb.wrAccesses                         0                       # TLB accesses on write requests
system.cpu07.itb.wrMisses                           0                       # TLB misses on write requests
system.cpu07.not_idle_fraction                      0                       # Percentage of non-idle cycles
system.cpu07.numCycles                              0                       # number of cpu cycles simulated
system.cpu07.numWorkItemsCompleted                  0                       # number of work items this cpu completed
system.cpu07.numWorkItemsStarted                    0                       # number of work items this cpu started
system.cpu07.num_busy_cycles                        0                       # Number of busy cycles
system.cpu07.num_conditional_control_insts            0                       # number of instructions that are conditional controls
system.cpu07.num_fp_alu_accesses                    0                       # Number of float alu accesses
system.cpu07.num_fp_insts                           0                       # number of float instructions
system.cpu07.num_fp_register_reads                  0                       # number of times the floating registers were read
system.cpu07.num_fp_register_writes                 0                       # number of times the floating registers were written
system.cpu07.num_func_calls                         0                       # number of times a function call or return occured
system.cpu07.num_idle_cycles                        0                       # Number of idle cycles
system.cpu07.num_int_alu_accesses                   0                       # Number of integer alu accesses
system.cpu07.num_int_insts                          0                       # number of integer instructions
system.cpu07.num_int_register_reads                 0                       # number of times the integer registers were read
system.cpu07.num_int_register_writes                0                       # number of times the integer registers were written
system.cpu07.num_load_insts                         0                       # Number of load instructions
system.cpu07.num_mem_refs                           0                       # number of memory refs
system.cpu07.num_store_insts                        0                       # Number of store instructions
system.cpu07.num_vec_alu_accesses                   0                       # Number of vector alu accesses
system.cpu07.num_vec_insts                          0                       # number of vector instructions
system.cpu07.num_vec_register_reads                 0                       # number of times the vector registers were read
system.cpu07.num_vec_register_writes                0                       # number of times the vector registers were written
system.cpu07.op_class::No_OpClass                   0                       # Class of executed instruction
system.cpu07.op_class::IntAlu                       0                       # Class of executed instruction
system.cpu07.op_class::IntMult                      0                       # Class of executed instruction
system.cpu07.op_class::IntDiv                       0                       # Class of executed instruction
system.cpu07.op_class::FloatAdd                     0                       # Class of executed instruction
system.cpu07.op_class::FloatCmp                     0                       # Class of executed instruction
system.cpu07.op_class::FloatCvt                     0                       # Class of executed instruction
system.cpu07.op_class::FloatMult                    0                       # Class of executed instruction
system.cpu07.op_class::FloatMultAcc                 0                       # Class of executed instruction
system.cpu07.op_class::FloatDiv                     0                       # Class of executed instruction
system.cpu07.op_class::FloatMisc                    0                       # Class of executed instruction
system.cpu07.op_class::FloatSqrt                    0                       # Class of executed instruction
system.cpu07.op_class::SimdAdd                      0                       # Class of executed instruction
system.cpu07.op_class::SimdAddAcc                   0                       # Class of executed instruction
system.cpu07.op_class::SimdAlu                      0                       # Class of executed instruction
system.cpu07.op_class::SimdCmp                      0                       # Class of executed instruction
system.cpu07.op_class::SimdCvt                      0                       # Class of executed instruction
system.cpu07.op_class::SimdMisc                     0                       # Class of executed instruction
system.cpu07.op_class::SimdMult                     0                       # Class of executed instruction
system.cpu07.op_class::SimdMultAcc                  0                       # Class of executed instruction
system.cpu07.op_class::SimdShift                    0                       # Class of executed instruction
system.cpu07.op_class::SimdShiftAcc                 0                       # Class of executed instruction
system.cpu07.op_class::SimdDiv                      0                       # Class of executed instruction
system.cpu07.op_class::SimdSqrt                     0                       # Class of executed instruction
system.cpu07.op_class::SimdFloatAdd                 0                       # Class of executed instruction
system.cpu07.op_class::SimdFloatAlu                 0                       # Class of executed instruction
system.cpu07.op_class::SimdFloatCmp                 0                       # Class of executed instruction
system.cpu07.op_class::SimdFloatCvt                 0                       # Class of executed instruction
system.cpu07.op_class::SimdFloatDiv                 0                       # Class of executed instruction
system.cpu07.op_class::SimdFloatMisc                0                       # Class of executed instruction
system.cpu07.op_class::SimdFloatMult                0                       # Class of executed instruction
system.cpu07.op_class::SimdFloatMultAcc             0                       # Class of executed instruction
system.cpu07.op_class::SimdFloatSqrt                0                       # Class of executed instruction
system.cpu07.op_class::SimdReduceAdd                0                       # Class of executed instruction
system.cpu07.op_class::SimdReduceAlu                0                       # Class of executed instruction
system.cpu07.op_class::SimdReduceCmp                0                       # Class of executed instruction
system.cpu07.op_class::SimdFloatReduceAdd            0                       # Class of executed instruction
system.cpu07.op_class::SimdFloatReduceCmp            0                       # Class of executed instruction
system.cpu07.op_class::SimdAes                      0                       # Class of executed instruction
system.cpu07.op_class::SimdAesMix                   0                       # Class of executed instruction
system.cpu07.op_class::SimdSha1Hash                 0                       # Class of executed instruction
system.cpu07.op_class::SimdSha1Hash2                0                       # Class of executed instruction
system.cpu07.op_class::SimdSha256Hash               0                       # Class of executed instruction
system.cpu07.op_class::SimdSha256Hash2              0                       # Class of executed instruction
system.cpu07.op_class::SimdShaSigma2                0                       # Class of executed instruction
system.cpu07.op_class::SimdShaSigma3                0                       # Class of executed instruction
system.cpu07.op_class::SimdPredAlu                  0                       # Class of executed instruction
system.cpu07.op_class::MemRead                      0                       # Class of executed instruction
system.cpu07.op_class::MemWrite                     0                       # Class of executed instruction
system.cpu07.op_class::FloatMemRead                 0                       # Class of executed instruction
system.cpu07.op_class::FloatMemWrite                0                       # Class of executed instruction
system.cpu07.op_class::IprAccess                    0                       # Class of executed instruction
system.cpu07.op_class::InstPrefetch                 0                       # Class of executed instruction
system.cpu07.op_class::total                        0                       # Class of executed instruction
system.cpu08.committedInsts                         0                       # Number of instructions committed
system.cpu08.committedOps                           0                       # Number of ops (including micro ops) committed
system.cpu08.dtb.rdAccesses                         0                       # TLB accesses on read requests
system.cpu08.dtb.rdMisses                           0                       # TLB misses on read requests
system.cpu08.dtb.wrAccesses                         0                       # TLB accesses on write requests
system.cpu08.dtb.wrMisses                           0                       # TLB misses on write requests
system.cpu08.idle_fraction                          1                       # Percentage of idle cycles
[...]
system.mem_ctrls15.bw_write::.ruby.dir_cntrl15      7593972                       # Write bandwidth from this memory (bytes/s)
system.mem_ctrls15.bw_write::total            7593972                       # Write bandwidth from this memory (bytes/s)
system.mem_ctrls15.bw_total::.ruby.dir_cntrl15     15189392                       # Total bandwidth to/from this memory (bytes/s)
system.mem_ctrls15.bw_total::total           15189392                       # Total bandwidth to/from this memory (bytes/s)
system.mem_ctrls15.power_state.pwrStateResidencyTicks::UNDEFINED 662824708000                       # Cumulative time (in ticks) in various power states
system.mem_ctrls8.bytes_read::.ruby.dir_cntrl8      5374080                       # Number of bytes read from this memory
system.mem_ctrls8.bytes_read::total           5374080                       # Number of bytes read from this memory
system.mem_ctrls8.bytes_written::.ruby.dir_cntrl8      5372864                       # Number of bytes written to this memory
system.mem_ctrls8.bytes_written::total        5372864                       # Number of bytes written to this memory
system.mem_ctrls8.num_reads::.ruby.dir_cntrl8        83970                       # Number of read requests responded to by this memory
system.mem_ctrls8.num_reads::total              83970                       # Number of read requests responded to by this memory
system.mem_ctrls8.num_writes::.ruby.dir_cntrl8        83951                       # Number of write requests responded to by this memory
system.mem_ctrls8.num_writes::total             83951                       # Number of write requests responded to by this memory
system.mem_ctrls8.bw_read::.ruby.dir_cntrl8      8107845                       # Total read bandwidth from this memory (bytes/s)
system.mem_ctrls8.bw_read::total              8107845                       # Total read bandwidth from this memory (bytes/s)
system.mem_ctrls8.bw_write::.ruby.dir_cntrl8      8106010                       # Write bandwidth from this memory (bytes/s)
system.mem_ctrls8.bw_write::total             8106010                       # Write bandwidth from this memory (bytes/s)
system.mem_ctrls8.bw_total::.ruby.dir_cntrl8     16213855                       # Total bandwidth to/from this memory (bytes/s)
system.mem_ctrls8.bw_total::total            16213855                       # Total bandwidth to/from this memory (bytes/s)
system.mem_ctrls8.power_state.pwrStateResidencyTicks::UNDEFINED 662824708000                       # Cumulative time (in ticks) in various power states
system.mem_ctrls9.bytes_read::.ruby.dir_cntrl9      6003840                       # Number of bytes read from this memory
system.mem_ctrls9.bytes_read::total           6003840                       # Number of bytes read from this memory
system.mem_ctrls9.bytes_written::.ruby.dir_cntrl9      6002944                       # Number of bytes written to this memory
system.mem_ctrls9.bytes_written::total        6002944                       # Number of bytes written to this memory
system.mem_ctrls9.num_reads::.ruby.dir_cntrl9        93810                       # Number of read requests responded to by this memory
system.mem_ctrls9.num_reads::total              93810                       # Number of read requests responded to by this memory
system.mem_ctrls9.num_writes::.ruby.dir_cntrl9        93796                       # Number of write requests responded to by this memory
system.mem_ctrls9.num_writes::total             93796                       # Number of write requests responded to by this memory
system.mem_ctrls9.bw_read::.ruby.dir_cntrl9      9057960                       # Total read bandwidth from this memory (bytes/s)
system.mem_ctrls9.bw_read::total              9057960                       # Total read bandwidth from this memory (bytes/s)
system.mem_ctrls9.bw_write::.ruby.dir_cntrl9      9056609                       # Write bandwidth from this memory (bytes/s)
system.mem_ctrls9.bw_write::total             9056609                       # Write bandwidth from this memory (bytes/s)
system.mem_ctrls9.bw_total::.ruby.dir_cntrl9     18114569                       # Total bandwidth to/from this memory (bytes/s)
system.mem_ctrls9.bw_total::total            18114569                       # Total bandwidth to/from this memory (bytes/s)
system.mem_ctrls9.power_state.pwrStateResidencyTicks::UNDEFINED 662824708000                       # Cumulative time (in ticks) in various power states
system.mem_ctrls2.bytes_read::.ruby.dir_cntrl2      4618752                       # Number of bytes read from this memory
system.mem_ctrls2.bytes_read::total           4618752                       # Number of bytes read from this memory
system.mem_ctrls2.bytes_written::.ruby.dir_cntrl2      4617856                       # Number of bytes written to this memory
system.mem_ctrls2.bytes_written::total        4617856                       # Number of bytes written to this memory
system.mem_ctrls2.num_reads::.ruby.dir_cntrl2        72168                       # Number of read requests responded to by this memory
system.mem_ctrls2.num_reads::total              72168                       # Number of read requests responded to by this memory
system.mem_ctrls2.num_writes::.ruby.dir_cntrl2        72154                       # Number of write requests responded to by this memory
system.mem_ctrls2.num_writes::total             72154                       # Number of write requests responded to by this memory
system.mem_ctrls2.bw_read::.ruby.dir_cntrl2      6968286                       # Total read bandwidth from this memory (bytes/s)
system.mem_ctrls2.bw_read::total              6968286                       # Total read bandwidth from this memory (bytes/s)
system.mem_ctrls2.bw_write::.ruby.dir_cntrl2      6966934                       # Write bandwidth from this memory (bytes/s)
system.mem_ctrls2.bw_write::total             6966934                       # Write bandwidth from this memory (bytes/s)
system.mem_ctrls2.bw_total::.ruby.dir_cntrl2     13935220                       # Total bandwidth to/from this memory (bytes/s)
system.mem_ctrls2.bw_total::total            13935220                       # Total bandwidth to/from this memory (bytes/s)
system.mem_ctrls2.power_state.pwrStateResidencyTicks::UNDEFINED 662824708000                       # Cumulative time (in ticks) in various power states
system.mem_ctrls3.bytes_read::.ruby.dir_cntrl3      5161472                       # Number of bytes read from this memory
system.mem_ctrls3.bytes_read::total           5161472                       # Number of bytes read from this memory
system.mem_ctrls3.bytes_written::.ruby.dir_cntrl3      5160448                       # Number of bytes written to this memory
system.mem_ctrls3.bytes_written::total        5160448                       # Number of bytes written to this memory
system.mem_ctrls3.num_reads::.ruby.dir_cntrl3        80648                       # Number of read requests responded to by this memory
system.mem_ctrls3.num_reads::total              80648                       # Number of read requests responded to by this memory
system.mem_ctrls3.num_writes::.ruby.dir_cntrl3        80632                       # Number of write requests responded to by this memory
system.mem_ctrls3.num_writes::total             80632                       # Number of write requests responded to by this memory
system.mem_ctrls3.bw_read::.ruby.dir_cntrl3      7787084                       # Total read bandwidth from this memory (bytes/s)
system.mem_ctrls3.bw_read::total              7787084                       # Total read bandwidth from this memory (bytes/s)
system.mem_ctrls3.bw_write::.ruby.dir_cntrl3      7785540                       # Write bandwidth from this memory (bytes/s)
system.mem_ctrls3.bw_write::total             7785540                       # Write bandwidth from this memory (bytes/s)
system.mem_ctrls3.bw_total::.ruby.dir_cntrl3     15572624                       # Total bandwidth to/from this memory (bytes/s)
system.mem_ctrls3.bw_total::total            15572624                       # Total bandwidth to/from this memory (bytes/s)
system.mem_ctrls3.power_state.pwrStateResidencyTicks::UNDEFINED 662824708000                       # Cumulative time (in ticks) in various power states
system.mem_ctrls0.bytes_read::.ruby.dir_cntrl0      4226240                       # Number of bytes read from this memory
system.mem_ctrls0.bytes_read::total           4226240                       # Number of bytes read from this memory
system.mem_ctrls0.bytes_written::.ruby.dir_cntrl0      4225088                       # Number of bytes written to this memory
system.mem_ctrls0.bytes_written::total        4225088                       # Number of bytes written to this memory
system.mem_ctrls0.num_reads::.ruby.dir_cntrl0        66035                       # Number of read requests responded to by this memory
system.mem_ctrls0.num_reads::total              66035                       # Number of read requests responded to by this memory
system.mem_ctrls0.num_writes::.ruby.dir_cntrl0        66017                       # Number of write requests responded to by this memory
system.mem_ctrls0.num_writes::total             66017                       # Number of write requests responded to by this memory
system.mem_ctrls0.bw_read::.ruby.dir_cntrl0      6376105                       # Total read bandwidth from this memory (bytes/s)
system.mem_ctrls0.bw_read::total              6376105                       # Total read bandwidth from this memory (bytes/s)
system.mem_ctrls0.bw_write::.ruby.dir_cntrl0      6374367                       # Write bandwidth from this memory (bytes/s)
system.mem_ctrls0.bw_write::total             6374367                       # Write bandwidth from this memory (bytes/s)
system.mem_ctrls0.bw_total::.ruby.dir_cntrl0     12750472                       # Total bandwidth to/from this memory (bytes/s)
system.mem_ctrls0.bw_total::total            12750472                       # Total bandwidth to/from this memory (bytes/s)
system.mem_ctrls0.power_state.pwrStateResidencyTicks::UNDEFINED 662824708000                       # Cumulative time (in ticks) in various power states
system.mem_ctrls1.bytes_read::.ruby.dir_cntrl1      4015872                       # Number of bytes read from this memory
system.mem_ctrls1.bytes_read::total           4015872                       # Number of bytes read from this memory
system.mem_ctrls1.bytes_written::.ruby.dir_cntrl1      4014848                       # Number of bytes written to this memory
system.mem_ctrls1.bytes_written::total        4014848                       # Number of bytes written to this memory
system.mem_ctrls1.num_reads::.ruby.dir_cntrl1        62748                       # Number of read requests responded to by this memory
system.mem_ctrls1.num_reads::total              62748                       # Number of read requests responded to by this memory
system.mem_ctrls1.num_writes::.ruby.dir_cntrl1        62732                       # Number of write requests responded to by this memory
system.mem_ctrls1.num_writes::total             62732                       # Number of write requests responded to by this memory
system.mem_ctrls1.bw_read::.ruby.dir_cntrl1      6058724                       # Total read bandwidth from this memory (bytes/s)
system.mem_ctrls1.bw_read::total              6058724                       # Total read bandwidth from this memory (bytes/s)
system.mem_ctrls1.bw_write::.ruby.dir_cntrl1      6057179                       # Write bandwidth from this memory (bytes/s)
system.mem_ctrls1.bw_write::total             6057179                       # Write bandwidth from this memory (bytes/s)
system.mem_ctrls1.bw_total::.ruby.dir_cntrl1     12115903                       # Total bandwidth to/from this memory (bytes/s)
system.mem_ctrls1.bw_total::total            12115903                       # Total bandwidth to/from this memory (bytes/s)
system.mem_ctrls1.power_state.pwrStateResidencyTicks::UNDEFINED 662824708000                       # Cumulative time (in ticks) in various power states
system.mem_ctrls6.bytes_read::.ruby.dir_cntrl6      4602176                       # Number of bytes read from this memory
system.mem_ctrls6.bytes_read::total           4602176                       # Number of bytes read from this memory
system.mem_ctrls6.bytes_written::.ruby.dir_cntrl6      4601344                       # Number of bytes written to this memory
system.mem_ctrls6.bytes_written::total        4601344                       # Number of bytes written to this memory
system.mem_ctrls6.num_reads::.ruby.dir_cntrl6        71909                       # Number of read requests responded to by this memory
system.mem_ctrls6.num_reads::total              71909                       # Number of read requests responded to by this memory
system.mem_ctrls6.num_writes::.ruby.dir_cntrl6        71896                       # Number of write requests responded to by this memory
system.mem_ctrls6.num_writes::total             71896                       # Number of write requests responded to by this memory
system.mem_ctrls6.bw_read::.ruby.dir_cntrl6      6943278                       # Total read bandwidth from this memory (bytes/s)
system.mem_ctrls6.bw_read::total              6943278                       # Total read bandwidth from this memory (bytes/s)
system.mem_ctrls6.bw_write::.ruby.dir_cntrl6      6942022                       # Write bandwidth from this memory (bytes/s)
system.mem_ctrls6.bw_write::total             6942022                       # Write bandwidth from this memory (bytes/s)
system.mem_ctrls6.bw_total::.ruby.dir_cntrl6     13885300                       # Total bandwidth to/from this memory (bytes/s)
system.mem_ctrls6.bw_total::total            13885300                       # Total bandwidth to/from this memory (bytes/s)
system.mem_ctrls6.power_state.pwrStateResidencyTicks::UNDEFINED 662824708000                       # Cumulative time (in ticks) in various power states
system.mem_ctrls7.bytes_read::.ruby.dir_cntrl7      5228800                       # Number of bytes read from this memory
system.mem_ctrls7.bytes_read::total           5228800                       # Number of bytes read from this memory
system.mem_ctrls7.bytes_written::.ruby.dir_cntrl7      5227712                       # Number of bytes written to this memory
system.mem_ctrls7.bytes_written::total        5227712                       # Number of bytes written to this memory
system.mem_ctrls7.num_reads::.ruby.dir_cntrl7        81700                       # Number of read requests responded to by this memory
system.mem_ctrls7.num_reads::total              81700                       # Number of read requests responded to by this memory
system.mem_ctrls7.num_writes::.ruby.dir_cntrl7        81683                       # Number of write requests responded to by this memory
system.mem_ctrls7.num_writes::total             81683                       # Number of write requests responded to by this memory
system.mem_ctrls7.bw_read::.ruby.dir_cntrl7      7888662                       # Total read bandwidth from this memory (bytes/s)
system.mem_ctrls7.bw_read::total              7888662                       # Total read bandwidth from this memory (bytes/s)
system.mem_ctrls7.bw_write::.ruby.dir_cntrl7      7887020                       # Write bandwidth from this memory (bytes/s)
system.mem_ctrls7.bw_write::total             7887020                       # Write bandwidth from this memory (bytes/s)
system.mem_ctrls7.bw_total::.ruby.dir_cntrl7     15775682                       # Total bandwidth to/from this memory (bytes/s)
system.mem_ctrls7.bw_total::total            15775682                       # Total bandwidth to/from this memory (bytes/s)
system.mem_ctrls7.power_state.pwrStateResidencyTicks::UNDEFINED 662824708000                       # Cumulative time (in ticks) in various power states
system.mem_ctrls4.bytes_read::.ruby.dir_cntrl4      4572032                       # Number of bytes read from this memory
system.mem_ctrls4.bytes_read::total           4572032                       # Number of bytes read from this memory
system.mem_ctrls4.bytes_written::.ruby.dir_cntrl4      4570880                       # Number of bytes written to this memory
system.mem_ctrls4.bytes_written::total        4570880                       # Number of bytes written to this memory
system.mem_ctrls4.num_reads::.ruby.dir_cntrl4        71438                       # Number of read requests responded to by this memory
system.mem_ctrls4.num_reads::total              71438                       # Number of read requests responded to by this memory
system.mem_ctrls4.num_writes::.ruby.dir_cntrl4        71420                       # Number of write requests responded to by this memory
system.mem_ctrls4.num_writes::total             71420                       # Number of write requests responded to by this memory
system.mem_ctrls4.bw_read::.ruby.dir_cntrl4      6897800                       # Total read bandwidth from this memory (bytes/s)
system.mem_ctrls4.bw_read::total              6897800                       # Total read bandwidth from this memory (bytes/s)
system.mem_ctrls4.bw_write::.ruby.dir_cntrl4      6896062                       # Write bandwidth from this memory (bytes/s)
system.mem_ctrls4.bw_write::total             6896062                       # Write bandwidth from this memory (bytes/s)
system.mem_ctrls4.bw_total::.ruby.dir_cntrl4     13793861                       # Total bandwidth to/from this memory (bytes/s)
system.mem_ctrls4.bw_total::total            13793861                       # Total bandwidth to/from this memory (bytes/s)
system.mem_ctrls4.power_state.pwrStateResidencyTicks::UNDEFINED 662824708000                       # Cumulative time (in ticks) in various power states
system.mem_ctrls5.bytes_read::.ruby.dir_cntrl5      4700160                       # Number of bytes read from this memory
system.mem_ctrls5.bytes_read::total           4700160                       # Number of bytes read from this memory
system.mem_ctrls5.bytes_written::.ruby.dir_cntrl5      4699136                       # Number of bytes written to this memory
system.mem_ctrls5.bytes_written::total        4699136                       # Number of bytes written to this memory
system.mem_ctrls5.num_reads::.ruby.dir_cntrl5        73440                       # Number of read requests responded to by this memory
system.mem_ctrls5.num_reads::total              73440                       # Number of read requests responded to by this memory
system.mem_ctrls5.num_writes::.ruby.dir_cntrl5        73424                       # Number of write requests responded to by this memory
system.mem_ctrls5.num_writes::total             73424                       # Number of write requests responded to by this memory
system.mem_ctrls5.bw_read::.ruby.dir_cntrl5      7091106                       # Total read bandwidth from this memory (bytes/s)
system.mem_ctrls5.bw_read::total              7091106                       # Total read bandwidth from this memory (bytes/s)
system.mem_ctrls5.bw_write::.ruby.dir_cntrl5      7089561                       # Write bandwidth from this memory (bytes/s)
system.mem_ctrls5.bw_write::total             7089561                       # Write bandwidth from this memory (bytes/s)
system.mem_ctrls5.bw_total::.ruby.dir_cntrl5     14180666                       # Total bandwidth to/from this memory (bytes/s)
system.mem_ctrls5.bw_total::total            14180666                       # Total bandwidth to/from this memory (bytes/s)
system.mem_ctrls5.power_state.pwrStateResidencyTicks::UNDEFINED 662824708000                       # Cumulative time (in ticks) in various power states
system.cpu_voltage_domain.voltage                   1                       # Voltage in Volts

---------- End Simulation Statistics   ----------
